# total energy = -19512.47190163 eV

CRYSTAL
PRIMVEC
        5.93400000     0.00000000     0.00000000
        0.00000000     9.29699974     0.00000000
        0.00000000     0.00000000     4.64899994
PRIMCOORD
23 1
Ti      4.56404900     6.84449502     2.44178899     0.62206990    -0.09892117     0.02748716
Ti      4.45220702     2.53468298     2.38071802     0.97758058     0.16199319    -0.00165553
Ti      1.38289002     7.21418301     2.22981000    -1.02577413    -2.98878255     0.36730922
Ti      1.63475198     2.16222502     2.11455303    -3.10024557     3.45226649    -0.04199256
Ti      3.11502802     4.58268599     4.51521499    -3.59615345     0.16070403    -0.06144296
Ti      3.02912499     9.20374998     0.33894798     0.10986199     0.46236937    -3.58694041
Ti      5.88770599     4.71098301     0.21247498     3.84107862    -0.17313069    -1.59036005
Ti      5.91465799     0.04289701     4.39164300    -0.62396455    -1.01130781    -1.80809632
O       4.34746501     5.32481099     1.25024602    -0.72789577     1.27133282    -0.89298688
O       4.57855100     0.77155398     0.76674503    -1.86454414     0.79572099     1.67379264
O       1.62774499     5.59757599     0.94385801    -0.48450169     0.45354328    -0.20560245
O       1.34041402     0.85180302     0.67264498     1.91577236     0.64840212     1.91869005
O       4.32121602     8.23924602     3.57490999    -0.98946499     1.89009474     2.30146060
O       4.52111701     3.31002698     4.05860398    -0.97693420     2.81338363    -1.20121599
O       1.49334100     8.58426101     3.38608499     0.34654910     0.51534954     2.12367466
O       1.25625600     3.63116100     3.86275199     1.15372435     1.09255341    -0.92766902
O       2.87055702     1.40488802     2.99955001     1.46659892    -0.60910125     0.55635942
O       0.04330501     6.32765702     3.54732498     0.05407906    -1.13671958    -1.11019042
O       5.68717199     1.48696902     3.29821098     1.65906561    -1.41045630    -1.94185724
O       2.90891502     7.83764102     1.41938197     1.77776603    -0.49438990    -0.18887537
O       2.79565902     3.41808498     1.12139703    -0.19809997    -4.37112125     4.68165406
O       5.86349602     7.74929901     1.38850501    -0.80566859     0.59896159    -1.38792417
O       5.84217097     3.45347000     1.55839901     0.46910052    -2.02274469     1.29638181
