# total energy = -4906.40351249 eV

CRYSTAL
PRIMVEC
        6.04700566     0.00000000     0.00000000
       -0.00000748     2.01566855     0.00000000
       -3.02354131    -1.00796544     6.85984401
PRIMCOORD
6 1
Ti     -0.00025879     1.51179948     1.71496058    -0.04962642    -0.03115535    88.93850303
Ti      3.02371549    -0.50409642     5.14488242     0.04962642     0.03115535   -88.93850303
O       0.00006384     0.50389529     1.11741235     0.04643414     0.03168063   -85.77567653
O       3.02339269     0.50380772     5.74243070    -0.04643414    -0.03168063    85.77567653
O      -0.00002774    -0.50397994     4.54733419    -0.00116780    -0.00006299    -0.65010702
O       3.02348416     1.51168289     2.31250887     0.00116780     0.00006299     0.65010702
