# total energy = -39034.23687720 eV

CRYSTAL
PRIMVEC
        7.60600008     0.00000000     0.00000000
        0.00000000     7.60600008     0.00000000
       -3.79573973    -3.79573973     9.71340985
PRIMCOORD
46 1
Ti      1.76344244     4.64956045     6.12117264     0.22806773     1.61652900    -0.40768250
Ti      3.73757701     6.55636002     1.23283498     1.19827927     0.96241184    -0.48837326
Ti      1.89797644     0.74307043     6.12324665     0.02553106    -1.44683922    -1.01934919
Ti      3.82105499     2.72272099     1.24680600     1.45349529    -2.15132303    -0.43498197
Ti     -2.04720755     4.84998543     5.95837862    -0.10868931    -1.64720948     0.68766751
Ti     -0.01915399     6.67587798     1.14623100     0.01344019     0.80220891     0.15867672
Ti     -1.91310758     0.96885846     6.22681764     1.08347510     1.68564131    -1.06425867
Ti      0.07929700     2.88652198     1.26017302    -0.57843672    -0.60425446    -1.28890195
Ti      3.78252744     1.01334046     8.48411962     0.80883079    -0.97455722     1.16141812
Ti      5.84274698     2.82165099     3.60673000     0.64740247     1.14584572     0.79279610
Ti      3.67534947    -2.79176153     8.45290964     1.12628810     0.96451886     1.12469016
Ti      5.59984002    -0.81059900     3.61840201     1.16543881    -0.70694256    -0.41317926
Ti      0.06230247     0.93819046     8.40183965    -0.71217758     0.44648586     3.00802341
Ti      2.11806301     2.94719501     3.44440800    -0.87378793    -1.50713932     1.35964845
Ti     -0.09439956    -2.91069454     8.50786862    -0.17369248     0.12165333     0.45003295
Ti      1.90417999    -0.90997002     3.61324999    -1.12696970    -0.25516254     0.89086469
O       1.61277943    -1.12700255     5.75497664     0.72955131     2.39871647    -1.81380314
O       3.83485000     0.81237699     1.02366402    -0.25480130     2.28418432    -1.70653488
O      -1.88081755     2.93644547     5.71370060    -0.04815344    -0.65517492    -0.68600246
O       0.20007001     4.69836102     0.72007498    -0.45855410     1.71624671     0.52898076
O      -1.72117255    -0.90692953     5.59520660    -0.43981538     0.21235572     0.56497313
O       0.21178102     0.99303402     0.72853398    -0.93566310    -1.20056293     0.09705327
O       3.47561946     2.92894544     8.90531365    -0.29898007    -1.29218576    -0.07650526
O       5.55981898     4.76644501     3.97938101     0.42749414     0.53770246     0.57838761
O       4.00886645    -0.90009653     8.83797965    -0.23535296    -0.00694635     0.08276898
O       5.85064300     1.04635699     4.15013302    -0.00638457    -1.57566439    -0.01590896
O       0.12916344     2.85110844     9.00652964     0.27482635    -0.62112707    -0.87020664
O       1.80225399     4.69461402     3.73376000     1.11149705     0.92356682     1.72393791
O      -0.11823354    -0.84334756     9.08475061    -0.59157223    -0.60944706    -0.04896616
O       2.07021998     1.05918901     4.15507998    -0.58091861    -0.82741910     0.99999264
O       1.86786446     0.58221547     8.11522561     1.47035994     1.09506847    -0.01936144
O       4.01509698     2.62071699     3.29509101    -2.07978874     1.07321665    -1.01105481
O       1.85692245    -2.49237955     8.20973963    -2.28214492    -1.46681670    -0.66135740
O       3.77986103    -0.93987002     3.27551002    -0.10628996    -0.09436158     0.72617030
O      -1.90682354     1.32495447     8.20099963     0.05308353    -0.91551181    -0.80037160
O       0.13993801     2.86165198     3.18128102    -1.10584705    -0.11372353     0.45097166
O      -2.12537354     4.44538847     7.92128061     2.10757621     0.95610826     0.37524313
O       0.05980798    -0.99940098     3.02340098    -0.81711566     0.51555214     1.16157573
O       3.57663246     4.94967846     6.46975064     1.33225668    -0.70119177    -0.95574445
O       5.58245898     6.73893099     1.66373603     2.32799825    -0.73496142     0.05861757
O       3.92588643     0.86441146     6.55682464    -2.69227177    -0.01466841    -0.82065170
O       5.81638602     2.80532302     1.59278801    -1.09111282     0.38196014    -0.06480931
O      -0.05213756     4.76831148     6.53432360    -0.70541044    -0.74053558     0.90700043
O       1.99591598     6.67526901     1.59475502    -2.06325449    -0.41470958     0.05683169
O       0.04038146     1.00783247     6.63887960     0.09947473     0.40991344    -3.07956129
O       1.90246101     2.57477599     1.61692501     2.68281782     1.02854835    -0.19875638
