# total energy = -19518.97808670 eV

CRYSTAL
PRIMVEC
        7.60600008     0.00000000     0.00000000
        0.00000000     7.60600008     0.00000000
       -1.89786986    -1.89786986     4.85670466
PRIMCOORD
23 1
Ti      3.77461598     6.68648698     1.21370200     0.02048630     0.24733687     0.47881441
Ti      3.73402798     2.87599898     1.16909500     0.41700429    -0.31313323     2.22117093
Ti      0.02884302     6.61875600     1.19343599    -0.17828396     0.41960651    -0.69905750
Ti      0.01695600     2.82060100     1.08014798    -1.43613443    -0.52686783     1.27019408
Ti      5.65564520     2.74475921     3.68576082    -1.38302133     1.90775437    -1.40998553
Ti      5.75609320    -1.00474276     3.55408882    -0.74104106    -0.67865759     0.93972210
Ti      2.00072520     2.90767320     3.75369681     1.02784644    -0.03643332    -1.04217546
Ti      1.90471821    -0.91717276     3.67714079     0.44366278    -0.03666523    -0.04804648
O       3.90708799     4.73500098     0.77742102    -0.23893810     0.72788446     1.18865640
O       3.62646900     1.00234998     0.85607300    -0.02141833    -0.64068135    -0.47443222
O       7.28555601     4.72624702     0.74334100     0.74233792     0.63510360     0.90029807
O       0.02133299     0.87543698     0.71351202     0.46858424    -0.19448166    -0.03969425
O       5.76175625     4.67410025     3.94611180     0.67275022     0.89966455     0.19519617
O       5.70240823     0.97132522     4.11003683     0.62119007    -1.49954145    -1.50236170
O       1.90678121     4.78947825     4.09718883    -0.42248871     0.19600812    -0.00721915
O       2.01020224     0.98101022     4.14013082    -0.58541624    -0.15030469    -0.98285160
O       3.80415820     2.91425421     3.23828880    -0.12442113    -0.15930998    -0.78868953
O       3.78289321    -0.86837976     3.30814084    -0.24901272    -0.31254753    -0.63088776
O       0.04219321    -0.72422775     3.19026380    -0.13163539    -0.61917689    -0.34849105
O       5.62834802     6.80538602     1.64998901     0.86559974    -0.38911321    -0.24898932
O       5.83954398     2.60688398     1.71148798    -0.34408829     0.41844180     0.25585777
O       1.90213202     6.43624398     1.52872201    -0.41525645     0.26002090     0.83258985
O       1.72637998     2.98069299     1.74204299     0.99169440    -0.15490697    -0.05961773
