# total energy = -19945.59700848 eV

CRYSTAL
PRIMVEC
        5.93400000     0.00000000     0.00000000
        0.00000000     9.29699974     0.00000000
        0.00000000     0.00000000     4.64899994
PRIMCOORD
24 1
Ti      4.49008399     6.47212199     2.48275202     0.48429189     6.16724033    -1.77659618
Ti      4.40598402     2.53369999     2.29968600    -0.38100446     0.05215150    -0.74181445
Ti      1.56274202     5.86796302     2.34565299    -0.90029036     6.77567695    -1.02870878
Ti      1.46321600     2.58740401     2.17045700    -0.12789675    -1.46909572    -0.05976711
Ti      2.97174201     4.51801900     0.06764298     0.99845794     4.12322979    -0.43601452
Ti      2.94348098     0.72174898     4.53577501    -4.52294752    -9.80669143     3.28581629
Ti      0.07198599     4.34623499     4.60034099    -1.49152604     2.34696529    -1.60556916
Ti      5.84762198     0.72426897     4.40341201     0.96841871   -10.00960965    -0.79730787
O       4.51052198     5.56621001     0.96422900     0.45729144    -3.30803783    -1.72814706
O       4.40971901     1.16081401     0.84581099    -0.03510894     2.01719599     2.63772476
O       1.37966997     5.51725598     0.58749698     0.34032111    -1.25111366     1.61974546
O       1.24667302     1.32309902     0.79351700     3.02042718     1.91707925     2.54890469
O       4.73284099     8.34415202     3.86868999    -0.37491583     3.09753177     0.43997813
O       4.32767701     3.64669399     3.91034899     1.15887941    -1.80805955    -1.36147728
O       1.45943900     8.94082303     3.77624802     0.68248725     1.25654717     1.28631670
O       1.55866100     3.52297701     3.85509802     0.19502005    -0.59107215    -0.72419904
O       2.97481701     6.01438197     3.60648700     0.03900622    -0.86625614    -0.45622468
O       2.96937601     1.58128502     3.18792198     0.42043877     3.88559035    -6.57266823
O       0.02655200     5.68451500     3.48890800    -0.59503782     0.68142769    -2.33123296
O       5.84684297     1.61948601     2.93427002     0.48730882     1.26326598    -1.32387334
O       2.98999699     7.26530699     1.39666101    -0.47497343    -0.65687596     2.59808040
O       2.94917303     3.73330099     1.70842399    -0.64361241    -1.38639102     1.42094254
O       0.14412100     7.32286999     1.79283501     0.62611990    -0.92897977     1.05455558
O       5.87043100     3.49259499     1.46369401    -0.33115384    -1.50171995     4.05153661
