# total energy = -19517.61954796 eV

CRYSTAL
PRIMVEC
        5.17600016     0.00000000     0.00000000
        0.00000000     5.50899976     0.00000000
        0.00000000     0.00000000     9.26300011
PRIMCOORD
23 1
Ti      1.78789302     3.27406399     3.46574199    -0.00919093    -0.91447746     2.50643545
Ti      3.41101099     2.28510299     5.78740002     0.17136280    -0.08512643    -1.97144499
Ti      4.36286301     1.98450301     1.58495598     1.01530716    -0.10182961    -0.95332607
Ti      1.09876602     3.32427598     7.87529299    -3.10647253    -0.80520167     0.42651763
Ti      1.95909001     0.33834101     1.21985199    -0.38970559    -0.27415323     1.02750628
Ti      3.31696201     5.37299602     7.87682300     0.35359778    -2.01393891    -0.48403915
Ti      0.63887601     0.45398201     5.87419302    -0.02203976     1.12280888    -2.15698769
Ti      4.38050398     4.87738898     3.34250402     0.17781319     1.22592147     2.85909811
O       1.50393302     2.05903598     4.90802602     1.06934791     0.70183506    -1.32304467
O       3.43865002     3.71950000     4.57387699    -0.33014288    -0.42578564    -0.07843873
O       0.36061302     2.51484000     0.12059198     0.14548875    -0.41819908     0.32754041
O       3.39411801     0.85020998     0.14801199     1.28240297     1.41225273     0.04442919
O       1.69602298     4.76285402     8.89477598     0.36238350     0.80753007     0.99372968
O       4.25329400     0.82877100     4.62546198    -0.50336819     0.34214917     0.59471875
O       0.92402799     4.79781898     4.44851400     0.62708638    -0.55679188     0.06381146
O       0.00157801     3.28830098     2.74008800     0.51272187    -1.16097949    -1.28902048
O       4.98163600     1.99534802     6.74815502     0.20817639     0.15400348     1.10525158
O       2.58065600     1.86307498     2.36018800    -0.03119135     0.52206398    -0.73973596
O       2.75308999     3.47562702     7.13808801     0.56039400     0.56408430     0.41055031
O       0.18029799     0.50498602     2.12766800     0.40986639     0.58326834    -1.28294599
O       5.08159700     4.71177100     7.16318901    -0.42411391     0.46780545     0.28182335
O       2.43565598     0.92205500     6.73845499    -1.07291995    -1.09142496     0.65895084
O       2.83831399     4.57552702     2.28549501    -1.00680426    -0.05581481    -1.02137831
