# total energy = -39036.24332514 eV

CRYSTAL
PRIMVEC
        7.60600008     0.00000000     0.00000000
        0.00000000     7.60600008     0.00000000
       -3.79573973    -3.79573973     9.71340985
PRIMCOORD
46 1
Ti      1.94367846     4.71486346     6.11957162     0.27190686     0.56905142    -0.72889053
Ti      3.87489099     6.80314802     1.27763698    -0.87713474     0.64078419    -0.23674290
Ti      2.06385546     0.80342945     6.14632163    -1.74816079    -0.89506536    -0.08509378
Ti      3.79144498     2.78947500     1.27414102    -2.15714967     0.24392502     0.25218212
Ti     -1.83913855     4.80089848     6.02090763    -0.39115647    -1.80544962    -0.18042955
Ti      0.08935798     6.63867100     1.18186902    -0.82190357    -0.52899824    -0.33434586
Ti     -1.88079056     0.88691144     6.02230064     1.04207775     0.69321621    -0.42669350
Ti     -0.20970199     2.87775098     1.25109001     2.06486554     0.81664334    -0.86840507
Ti      3.82629744     1.02601743     8.50682661    -0.80205619    -1.10364953     0.20764417
Ti      5.69999602     2.83658199     3.77282302    -2.04024619    -0.38948448     0.20229550
Ti      3.90787546    -2.75378057     8.50459560    -0.12841765     0.45491959    -1.23978203
Ti      5.67089498    -1.02333699     3.47965099    -0.84911382     0.22178781     1.51001767
Ti     -0.08853453     1.03427344     8.37184561     1.30821068    -0.99601719    -1.34946276
Ti      1.73503202     2.85478199     3.64218498     1.70485363    -0.24085615    -1.44544979
Ti      0.03085744    -2.80268057     8.49072364     0.15244333     0.36646230     0.94795246
Ti      1.79670499    -0.95665600     3.70567800     0.62137879    -0.48588417     0.66548196
O       1.97139746    -1.04180353     5.87988962    -0.31382074     0.71880383    -2.02894387
O       3.92491798     1.05317602     0.83354699    -0.68195169    -2.07011368    -1.25350916
O      -1.89428654     2.76889345     5.67800765    -0.17836392     0.70524409    -0.85626226
O      -0.09077401     4.72979901     0.83810802     0.45894748     1.31331304    -0.93411144
O      -1.91336756    -1.06442956     5.70812662     0.57018990     2.52855954    -0.91637107
O       0.04265502     1.10884298     0.71346900     0.06792111    -2.27583003     0.76244293
O       3.61482144     2.87526247     8.93485761     0.76737019     0.30738887     0.25849701
O       5.51277899     4.67855100     3.99064698     0.29475652     0.86248356     0.00588603
O       3.98150243    -0.89057652     8.86437962    -0.19136651    -0.08581317    -0.21809262
O       5.74251198     0.96695802     4.09135201     0.30863817    -2.40053501    -0.58407875
O       0.18486045     2.71044344     9.01954460    -0.61037240     1.23324834     0.37056809
O       2.01607399     4.67419698     4.11599002    -0.55732667    -0.39468839     0.10033631
O      -0.20563553    -0.78414453     8.95186563     0.06929331    -0.37269748    -0.01722485
O       1.67291598     0.93754598     4.11376700     0.27631759    -0.03685806     0.08830997
O       1.86274842     0.61411147     8.01713064     1.61416487     1.20868916     0.69293801
O       3.81658497     2.53823001     3.13737401     0.23862597     0.68148991     1.13332058
O       1.84880847    -2.77397657     8.00327461     0.81781628    -0.17328342     1.21483204
O       3.80886200    -0.98731499     3.27016898    -0.63583790     0.26717320    -0.48728388
O      -1.94304753     1.16829742     7.99733163     0.17619365    -0.20905930     0.49278707
O      -0.10529802     2.85550299     3.18410502    -0.19233890    -0.02176825     0.18235530
O      -1.78215854    -2.92393757     7.96031563    -0.96254425    -0.06470338     1.39347004
O      -0.14999302    -1.24098299     3.23972002     2.37773497     0.69748655    -0.59551528
O       3.88859044     4.73780245     6.39327161    -1.34631110    -0.71518243     1.28599583
O       5.67325903     6.60435100     1.36215003     0.57001661    -0.04732451     2.17366875
O       3.88799946     0.95577947     6.40492865    -0.74564256     0.35293572     0.36257479
O       5.59782200     2.96715801     1.41728601     0.86905710     0.61342945     0.54443695
O       0.00258244     4.53276346     6.27761061     1.42808764     0.15919788     0.65203766
O       1.91092001     6.56244598     1.71865700    -0.40077857     0.30463753    -0.52354056
O       0.14396643     1.23366246     6.45848562    -1.34092644    -0.51714031     0.09128088
O       1.88404400     3.08603901     1.73792302    -0.09794698    -0.13046939    -0.28108261
