# total energy = -19961.73916702 eV

CRYSTAL
PRIMVEC
        7.60600008     0.00000000     0.00000000
        0.00000000     7.60600008     0.00000000
       -1.89786986    -1.89786986     4.85670466
PRIMCOORD
24 1
Ti      3.76947899     6.57986301     1.25106598     0.00288144     0.04143206    -0.42774122
Ti      3.77041299     2.80504499     1.24185899    -0.16718167    -0.01545774    -0.28756488
Ti      0.03738500     6.70997499     1.17753199    -0.34795266    -0.34042678     0.53347788
Ti     -0.01724499     2.90357700     1.16660501     0.37713829     0.46488082     0.08323718
Ti      5.72919020     2.94588821     3.60042983     0.28587798    -0.36886654     0.70254520
Ti      5.71224521    -0.92238680     3.59803382     1.15294736     0.24448629     0.44985735
Ti      1.88205625     2.78425425     3.63030781    -0.48492206     0.00290895    -0.02755992
Ti      1.90482823    -1.03970878     3.64612682    -1.07574945     0.20096058     0.32114556
O       3.63281902     4.71721401     0.81390297     0.72825933    -0.03995573    -0.43540671
O       3.70165302     0.92170199     0.94187603     0.58880958    -0.57947467    -0.74163575
O       0.07220602     4.83053902     0.76370898    -0.34421582    -0.61014332     0.17185646
O       0.06727102     1.02043202     0.71742798    -0.46674950    -0.25540114     0.49359800
O       5.97302624     4.77346021     4.12507383    -0.83308530     0.65251923    -1.01351947
O       5.72180924     1.03095222     4.08518482    -0.37750442    -0.50916295    -0.85382974
O       1.68702025     4.65628825     4.11051680     0.82861723     1.01574322     0.20730453
O       1.92151821     0.85036921     4.02087682     0.24098727     0.58065764     0.52403370
O       3.75901620     2.90447120     3.20120279     0.38042519     0.00075899     0.45855976
O       3.82364923    -1.13715079     3.23497383    -0.27280675     0.03409490     0.08481533
O      -0.03118680     2.84136724     3.18336783     0.95843202    -0.47079873    -0.07465329
O       0.00357623    -0.94605478     3.19761481     0.01297636     0.26432853     0.54497791
O       5.76733002     6.62008201     1.64173702    -1.44228116     0.24177892    -0.52820686
O       5.72639001     3.02934698     1.66506500    -0.69320412    -0.33335779    -0.75805302
O       1.83974202     6.63471001     1.71815402     1.73790543     0.04686943    -0.02092827
O       1.92114599     2.90460201     1.59162801    -0.78960510    -0.26837442     0.59369031
