# total energy = -4987.21744400 eV

CRYSTAL
PRIMVEC
        3.26486275     0.00000000     0.00000000
        1.01298020     5.01425250     0.00000000
       -0.00000675    -0.00006698     5.14157866
PRIMCOORD
6 1
Ti      2.13891805     2.50709276     2.57078945     0.00000000     0.00000000     0.00000000
Ti      0.00000000     0.00000000     0.00000000     0.00000000     0.00000000     0.00000000
O       1.82984493     0.97719095     1.00201802     0.62900005    -0.46929001    -0.65320417
O       2.44799117     4.03699457     4.13956088    -0.62900005     0.46929001     0.65320417
O       0.30907035     1.52987468     3.57280839    -0.62939472     0.47020198    -0.65321188
O       0.70390309     3.48431072     1.56877051     0.62939472    -0.47020198     0.65321188
