# total energy = -19516.33929585 eV

CRYSTAL
PRIMVEC
        5.17600016     0.00000000     0.00000000
        0.00000000     5.50899976     0.00000000
        0.00000000     0.00000000     9.26300011
PRIMCOORD
23 1
Ti      1.85421999     3.17335902     3.39828602     0.96625872    -0.36725497     2.96675693
Ti      3.27450300     2.26757601     5.97167001     0.46115298     1.06626284    -3.28241241
Ti      4.45014201     1.99292698     1.47307399    -0.57543830    -0.12753242    -0.60172115
Ti      0.95071900     3.30599799     7.71993300    -0.73016040     1.14719709     0.45260586
Ti      1.96081899     0.19236699     1.43277402     0.37363362     1.27607651    -2.25735537
Ti      3.20186400     5.34114701     7.92729201     1.10630728    -1.61563992     0.62400568
Ti      0.67835099     0.59638001     5.95584899    -1.39159596    -1.33701142    -3.48819458
Ti      4.54483998     4.81485198     3.38779498    -0.74402945     0.60259687     4.56813570
O       1.89868099     1.87973099     4.75312700    -2.21985710    -1.11690665     0.31892310
O       3.51046001     3.47384698     4.38818901     0.82037607     0.44305086    -0.06811523
O       5.10758802     2.61026701     9.11653601     0.93475241     0.32810348     0.51805100
O       3.44913699     0.83640603     0.24717499    -0.05560784    -0.78318068    -0.03164284
O       1.69703498     4.73210300     8.88062901     0.27507369    -0.47923144     2.01808045
O       4.27692002     0.67326502     4.81472302    -0.60698395     0.75539887     0.44726799
O       0.91869298     4.78124197     4.44084199     1.37394893    -1.27553092     0.51397503
O       0.17868601     3.37045098     2.50666400     0.19521956    -0.95871716    -1.36126439
O       5.06120098     2.26909802     6.49772702     0.76603656     0.27536114     0.72903991
O       2.62531300     1.89956799     2.22585498     0.23555505    -0.07901800    -0.89767555
O       2.64732000     3.89991102     6.67732999    -0.94504428    -0.60008490     1.56134154
O       0.25891701     0.56548198     2.28131101     0.27694314     1.37350156    -2.16452951
O       5.03325603     4.90267699     7.19872400    -0.01716443    -0.05008639     0.39542681
O       2.22138000     1.08980001     7.13129100    -0.68289657     1.80531978    -0.22446253
O       2.83609002     4.56217900     2.40567899     0.18352027    -0.28267387    -0.73623721
