# total energy = -19518.25869318 eV

CRYSTAL
PRIMVEC
        5.93400000     0.00000000     0.00000000
        0.00000000     9.29699974     0.00000000
        0.00000000     0.00000000     4.64899994
PRIMCOORD
23 1
Ti      4.52227099     6.93719598     2.26722998    -0.11487925     0.26025847     0.45403796
Ti      4.45675699     2.29444599     2.35344898    -0.51530403    -0.42475514     0.24441533
Ti      1.49310600     7.06646498     2.31349499     0.01880274    -0.07068531    -0.49087288
Ti      1.40622901     2.37707998     2.30881601     0.55246908    -0.63055737     0.12303787
Ti      2.95292198     4.55155402     0.10137099     0.11658132    -0.50631905     0.62015571
Ti      2.97747200     9.29648200     4.55719600     0.46796460     0.39968251     0.29111609
Ti      0.00253402     4.65284997     0.00166299     0.24064378     0.08746716    -0.42821096
Ti      0.01981203     0.01833700     0.05567098    -0.48211005     0.69882867    -0.06278919
O       4.47128598     5.61540101     0.83010802    -0.92786057    -0.19359334     0.21722307
O       4.42713101     0.94286500     0.90128601     0.23149244    -0.33144386    -0.09116415
O       1.49278299     5.54758800     0.97469301     0.59016044     0.10345223    -0.45935269
O       1.50322201     0.92258497     0.92917403    -0.51432881    -0.29789841    -0.12535444
O       4.45861700     8.38050301     3.67585002    -0.08083063    -0.03659401     0.35036641
O       4.47596401     3.77161703     3.73292798    -0.70384104     0.06895084    -0.18124253
O       1.45930200     8.46819101     3.74767202     0.04729880    -1.27106671    -0.76868763
O       1.44690099     3.61329502     3.80306402     0.38488117     1.36450089     0.07983561
O       2.86049498     1.51427198     3.27231998     1.03231913    -0.73425540    -0.07291394
O       0.04961799     6.00759401     3.21556699     0.01866107     0.31074827     0.05267807
O       5.92802400     1.36524000     3.19764201    -0.27980683     0.28212134     0.12619056
O       3.00686700     7.87619698     1.35491998    -0.53620453    -0.75350963     0.98330566
O       2.97612302     3.23384499     1.39364502    -0.07697192     0.18119573     0.13930679
O       5.91100201     7.76439601     1.43995602     0.58228720     1.62344553    -1.15837342
O       5.87169102     3.26851398     1.43142700    -0.05142440    -0.12997317     0.15729218
