# total energy = -19910.52167931 eV

CRYSTAL
PRIMVEC
        8.07417378     0.00000000     0.00000000
        0.00002841     4.62719530     0.00000000
        0.00000000     0.00000000    12.21555008
PRIMCOORD
24 1
Ti      2.92651659     2.74207180     4.53188212     0.42336957    -0.39621434     2.50059570
Ti      5.14768579     1.88512389     7.68366847    -0.42336957     0.39621434    -2.50059570
Ti      6.96346511     1.88512552     1.57584440     0.42334361     0.39619789    -2.50134672
Ti      1.11073727     2.74207029    10.63970631    -0.42334361    -0.39619789     2.50134672
Ti      2.92650251     0.42847421     1.57589336     0.42336957    -0.39621434    -2.50059570
Ti      5.14769987     4.19872160    10.63965735    -0.42336957     0.39621434     2.50059570
Ti      1.11072319     0.42847238     7.68361951    -0.42334361    -0.39619789    -2.50134672
Ti      6.96347919     4.19872336     4.53193108     0.42334361     0.39619789     2.50134672
O       2.55553706     1.62931420     6.23350190     0.96944843     1.30191482    -2.00735946
O       5.51866532     2.99788142     5.98204868    -0.96944843    -1.30191482     2.00735946
O       1.48161718     1.62933285     0.12576592    -0.96825853     1.30160397    -2.00744764
O       6.59258527     2.99786284    12.08978429     0.96825853    -1.30160397     2.00744764
O       5.51865124     0.68428377     0.12572629    -0.96944843    -1.30191482    -2.00735946
O       2.55555114     3.94291192    12.08982391     0.96944843     1.30191482     2.00735946
O       6.59257119     0.68426512     6.23354153     0.96825853    -1.30160397    -2.00744764
O       1.48163106     3.94293056     5.98200899    -0.96825853     1.30160397     2.00744764
O       0.29337068     2.81452252     3.29972494    -2.25795263     0.74943365     0.29693733
O       7.78083171     1.81267316     8.91582565     2.25795263    -0.74943365    -0.29693733
O       4.33046753     1.81262990     2.80808915    -2.25897696    -0.74939046    -0.29694864
O       3.74373485     2.81456579     9.40746118     2.25897696     0.74939046     0.29694864
O       0.29335660     0.50092480     2.80805016    -2.25795263     0.74943365    -0.29693733
O       7.78084579     4.12627088     9.40750017     2.25795263    -0.74943365     0.29693733
O       3.74372077     0.50096807     8.91586457     2.25897696     0.74939046    -0.29694864
O       4.33048161     4.12622761     3.29968595    -2.25897696    -0.74939046     0.29694864
