# total energy = -4983.26276269 eV

CRYSTAL
PRIMVEC
        3.90432538     0.00000000     0.00000000
        0.00000000     2.62178248     0.00000000
        0.00000000    -0.00008403     5.20194975
PRIMCOORD
6 1
Ti      1.95216269     1.31084918     2.60097478     0.00000000     0.00000000     0.00000000
Ti      0.00000000     0.00000000     0.00000000     0.00000000     0.00000000     0.00000000
O       1.95216269     0.51093041     1.01378337    -0.00000000    -1.79204286    -0.73923434
O       1.95216269     2.11076800     4.18816618    -0.00000000     1.79204286     0.73923434
O       0.00000000     0.79988545     3.61475914    -0.00000000     1.79174101    -0.73559469
O       0.00000000     1.82181291     1.58719036    -0.00000000    -1.79174101     0.73559469
