# total energy = -4977.50497400 eV

CRYSTAL
PRIMVEC
        3.75301803     0.00000000     0.00000000
        0.00000000     5.88041660     0.00000000
        0.00000000    -0.00007631     5.88041660
PRIMCOORD
6 1
Ti      1.87650895     2.94017008     2.94020823     0.00000000     0.00000000     0.00000000
Ti      0.00000000     0.00000000     0.00000000     0.00000000     0.00000000     0.00000000
O       1.87650895     1.14599170     1.14600657     0.00000000    -0.96646621    -0.96646621
O       1.87650895     4.73434846     4.73440990     0.00000000     0.96646621     0.96646621
O       0.00000000     1.79414744     4.08621600     0.00000000     0.96515623    -0.96515623
O       0.00000000     4.08619271     1.79420047    -0.00000000    -0.96515623     0.96515623
