# total energy = -19958.00838189 eV

CRYSTAL
PRIMVEC
        7.60600008     0.00000000     0.00000000
        0.00000000     7.60600008     0.00000000
       -1.89786986    -1.89786986     4.85670466
PRIMCOORD
24 1
Ti      3.76506100     6.66503303     1.10668299     1.44125607    -2.41144266     2.95037103
Ti      3.75706201     2.68528799     1.16491799     1.22496785     1.75541696    -0.25569759
Ti      0.04629798     6.69276599     1.23751100    -3.13582682     1.40982972    -0.05679389
Ti     -0.04065499     2.90031002     1.34460500    -1.19339829    -0.90620056    -2.80158457
Ti      5.78560023     2.90870922     3.72314180    -2.73686654    -0.79953856    -1.65541387
Ti      5.69991622    -0.87491478     3.71785383    -0.35756216     1.21745816    -0.78499742
Ti      1.95668220     2.81682024     3.62423481     1.43183503    -3.50424162     0.24630355
Ti      1.92809023    -1.09655279     3.55095879     0.97407308     2.38374416     0.23113455
O       3.84494898     4.75003899     1.01608901    -0.82652230     0.32054495    -2.55131535
O       3.92015301     0.83423402     0.70362000    -0.39359105     0.32893935    -0.99371709
O       7.20962399     4.88020399     0.66429599     1.91921995     0.68541265     1.81184473
O       0.06115500     0.98069398     0.93363901    -0.68672571     0.31245626    -1.09789411
O       5.49507621     4.96205824     3.90633280     1.26005802    -2.91561921     1.53730943
O       5.31346321     1.07296323     4.30130880     1.47463568    -0.83282613    -1.53090687
O       1.95361922     4.57892423     3.74051379    -0.63212343     3.09559316     1.54003351
O       2.41608023     0.87735524     4.04117680    -2.50105027    -0.02941163     1.04394438
O       3.71671923     2.83502224     3.11770979     0.49057695     0.20547364    -0.01865259
O       3.86342722    -0.99063177     3.02570984    -1.63058729     0.05211397     0.05803650
O      -0.00619275     2.67608222     3.20435081    -0.23168245     0.38417721     2.03174586
O       0.00831322    -0.83745777     3.33447381     1.00764321    -0.45668466    -0.08042619
O       5.79819698     6.75932998     1.73375702    -0.35314115     0.42128518    -0.52587667
O       5.60295402     2.81883598     1.68309799     1.24789335    -0.13978605     0.96581366
O       1.82325402     6.95059998     1.66951898     1.80962047    -1.38664967    -0.66884985
O       1.84397401     2.71066199     1.46416498     0.39729781     0.80995565     0.60558912
