# total energy = -19074.20887815 eV

CRYSTAL
PRIMVEC
        5.17600016     0.00000000     0.00000000
        0.00000000     5.50899976     0.00000000
        0.00000000     0.00000000     9.26300011
PRIMCOORD
22 1
Ti      1.87315602     3.40983600     3.33523498     1.02952511     0.37075604    -0.41902518
Ti      3.55201699     2.30249800     5.97767401     0.23910266    -0.82348068    -0.66190479
Ti      4.38629000     2.24016002     1.28159099    -1.10187264     0.84857749    -1.50417793
Ti      0.78520500     3.17447802     8.13265898    -0.74342010     1.01621733    -0.16502220
Ti      1.76762098     0.48644100     1.27221598     1.53357130     0.19218489    -1.41445873
Ti      3.19384098     4.95212998     8.02086801     1.85621273     1.13165785     0.97975830
Ti      0.62673198     0.17145899     5.97140601     0.34940405     2.51472366    -0.73588599
Ti      4.54160898     5.02851698     3.36637499    -1.43408371     0.29149816     0.95966692
O       3.38310398     3.51966500     4.48144798     0.22262291    -0.62509506     0.98368644
O       0.79551899     1.96334100     0.22872200     0.67732678    -0.81815155    -0.65949360
O       4.27926200     3.75826398     9.15848400     0.23883372    -0.95070071    -0.42183977
O       3.37158099     0.74525800     0.24889201     0.38763071     1.01527965    -1.11080285
O       1.63265501     4.66197003     8.90862799    -1.77011185     1.15027547     1.95426333
O       4.34456702     0.87350701     4.63895299    -0.52981380     0.03361024     1.33168358
O       1.08201301     5.01493300     4.23559498    -0.03261343    -1.42852524     1.51061546
O       0.17126001     3.51640399     2.44429300    -0.29943747    -1.17514319    -0.04244122
O       0.16674597     2.38058498     6.50680998    -0.43724068    -1.26425714    -0.05991932
O       2.66170002     1.94006302     2.23196502    -0.31821836     0.64525226     0.81427099
O       2.53747598     3.42564703     7.17692798    -0.41996620    -1.12830024    -1.42655526
O       0.04717298     0.71348498     2.05430900    -0.19617807    -0.70819237     1.09779204
O       2.36893001     0.80631801     6.64913098     0.04841749    -0.67518840    -0.22987959
O       2.69224398     4.70150100     2.37232802     0.70030860     0.38700156    -0.78033087
