# total energy = -19517.86389582 eV

CRYSTAL
PRIMVEC
        7.60600008     0.00000000     0.00000000
        0.00000000     7.60600008     0.00000000
       -1.89786986    -1.89786986     4.85670466
PRIMCOORD
23 1
Ti      3.81998399     6.81683001     1.27607898     0.36559686    -0.87491999    -1.65316724
Ti      3.79321402     2.88137499     1.28176700    -0.81778954     1.23321620     0.59570708
Ti      0.01568100     6.60469100     1.07726798    -0.44357511     0.24563789     0.96372901
Ti     -0.09632502     2.75213901     1.13603100    -0.04120092     0.26713206     0.70517467
Ti      5.74937022     2.73236524     3.72371680    -2.11193526    -0.54182985    -0.35387160
Ti      5.70269425    -1.06365876     3.53663783     0.92551366     0.78853526    -0.42836214
Ti      2.01626624     2.84377023     3.75614880     1.37877104     1.08914156     0.48029202
Ti      1.91986824    -0.88546975     3.61889584    -0.66917330    -0.87276309    -0.41258945
O       3.97236798     4.82915400     1.02497998    -1.03335785    -0.53497349    -0.55635762
O       3.70346302     1.08802499     0.72871300    -0.26855774    -1.03746159    -0.10054971
O      -0.22126801     4.68437402     0.81984399     1.23665017     0.07784892    -0.18874578
O       0.12996302     0.94233800     0.58110700    -0.03376425    -1.04573181     1.12257825
O       5.57845724     4.67491624     3.96556980     0.59692399     0.09431633    -0.55118662
O       5.69620722     0.84548025     4.05916480     1.01921652     1.45407739    -0.86050252
O       2.03762124     4.79251721     4.02099382    -0.47002714     0.85829703     0.36135377
O       1.73664824     1.01065520     4.08017880    -0.72833492    -0.16701121     0.54256082
O       3.82626823     2.59463623     3.60092180    -0.49259295     0.65176615    -2.05609242
O       3.80229423    -0.59254379     3.16802682    -0.00087855    -0.92766619     0.32336828
O      -0.02481275    -1.09591577     3.03085582     0.32794510     0.26640058     0.72003205
O       5.75275902     6.90373499     1.40364901    -0.25268580    -0.31574855     1.12707126
O       5.54968301     2.71852498     1.61223501     2.57600490    -0.21220248     0.51026415
O       1.94839899     6.71838399     1.49921799    -0.82652590    -0.23781556     0.46392103
O       1.70621001     2.94206501     1.91950501    -0.23622328    -0.25824581    -0.75462677
