# total energy = -19961.50940977 eV

CRYSTAL
PRIMVEC
        7.60600008     0.00000000     0.00000000
        0.00000000     7.60600008     0.00000000
       -1.89786986    -1.89786986     4.85670466
PRIMCOORD
24 1
Ti      3.79820300     6.52300402     1.22693799    -0.86307543     1.21381234     0.02300007
Ti      3.82367600     2.86717198     1.23299400    -1.06549100    -1.06815543    -0.67535963
Ti     -0.00173602     6.72275298     1.19453800     0.86354208     0.15653216     0.56489960
Ti     -0.01875600     2.92371198     1.21535102     0.71876321    -0.40057982    -0.08883268
Ti      5.71169724     2.87529824     3.64996479     0.48020049    -0.38161613    -0.19455596
Ti      5.74576224    -0.96682176     3.60871981    -0.29452409     0.61263215     0.02156102
Ti      1.91703524     2.83480523     3.63852482    -0.67615667    -0.37457542    -0.43471174
Ti      1.91351621    -1.03534079     3.67501683     0.08441166     0.54195532     0.37153174
O       3.59652900     4.66794899     0.75538200     0.68008069     0.80995693     0.32527012
O       3.65879898     0.82402899     0.82373001     0.78291740     1.36878821    -0.10886415
O       0.04993100     4.83127902     0.74649601    -0.31468540     0.16202275    -0.16574237
O      -0.02060299     1.01415301     0.76548199    -0.06809389    -0.71693130    -0.15078857
O       5.86304220     4.82511421     3.93703979    -0.13601244    -0.77814440     0.95862846
O       5.72516623     0.98939921     4.03458483    -0.26081177     0.16415703    -0.12983896
O       1.76892821     4.69667220     4.08056780     0.34312181    -0.38840513    -0.10662652
O       1.78697220     0.89571722     4.14205983     0.95172967    -0.14086771    -0.30885311
O       3.82226421     3.03751123     3.26915582    -0.02616664    -0.80794787    -0.01078681
O       3.79148425    -1.06900880     3.21771884     0.57952198     0.01094570     0.57651096
O       0.05748124     2.65059921     3.13503680    -1.84214236     0.60858986     0.43783538
O       0.06280223    -1.00053776     3.16343081    -1.17625391     0.41223541    -0.55021165
O       5.66266098     6.64383202     1.61058800     1.32163956     0.05104156    -0.10772772
O       5.66114002     2.99442599     1.58635698     0.47896636    -0.21172785     0.29702937
O       1.96394902     6.70187498     1.66227401    -1.65212286    -0.27078766    -0.11324402
O       1.83412300     3.01492298     1.69320898     1.09064205    -0.57293173    -0.43012284
