# total energy = -19941.13345406 eV

CRYSTAL
PRIMVEC
        6.66378162     0.00000000     0.00000000
        0.00002514     4.25536711     0.00000000
        0.00000000     0.00000000    10.17745373
PRIMCOORD
24 1
Ti      2.41531504     2.52172659     3.77576276     0.20389781     0.99882690    -0.23373830
Ti      4.24849129     1.73364046     6.40169108    -0.20389781    -0.99882690     0.23373830
Ti      5.74709120     1.73364190     1.31292350     0.20538365    -0.99884901     0.23561624
Ti      0.91671519     2.52172532     8.86453040    -0.20538365     0.99884901    -0.23561624
Ti      2.41530268     0.39404309     1.31296432     0.20389781     0.99882690     0.23373830
Ti      4.24850365     3.86132407     8.86448963    -0.20389781    -0.99882690    -0.23373830
Ti      0.91670278     0.39404155     6.40165025    -0.20538365     0.99884901     0.23561624
Ti      5.74710355     3.86132561     3.77580353     0.20538365    -0.99884901    -0.23561624
O       2.10913769     1.49838705     5.19347676     1.68653888    -0.25421432     0.57401365
O       4.55466870     2.75697994     4.98397708    -1.68653888     0.25421432    -0.57401365
O       1.22280956     1.49840424     0.10478260    -1.68674457    -0.25449894     0.57374265
O       5.44099688     2.75696281    10.07267092     1.68674457     0.25449894    -0.57374265
O       4.55465634     0.62929634     0.10474957    -1.68653888     0.25421432     0.57401365
O       2.10915004     3.62607066    10.07270395     1.68653888    -0.25421432    -0.57401365
O       5.44098447     0.62927921     5.19350973     1.68674457     0.25449894     0.57374265
O       1.22282180     3.62608785     4.98394405    -1.68674457    -0.25449894    -0.57374265
O       0.24212580     2.58835550     2.74918416    -0.58797886     0.35771823     1.31581575
O       6.42168058     1.66701150     7.42826963     0.58797886    -0.35771823    -1.31581575
O       3.57402428     1.66697194     2.33957508    -0.58578519    -0.35760870    -1.31593505
O       3.08978205     2.58839512     7.83787854     0.58578519     0.35760870     1.31593505
O       0.24211339     0.46067189     2.33954260    -0.58797886     0.35771823    -1.31581575
O       6.42169294     3.79469510     7.83791103     0.58797886    -0.35771823     1.31581575
O       3.08976969     0.46071151     7.42830206     0.58578519     0.35760870    -1.31593505
O       3.57403664     3.79465549     2.74915167    -0.58578519    -0.35760870     1.31593505
