# total energy = -19941.20901140 eV

CRYSTAL
PRIMVEC
        6.63143317     0.00000000     0.00000000
        0.00002502     4.23470999     0.00000000
        0.00000000     0.00000000    10.12804862
PRIMCOORD
24 1
Ti      2.40359021     2.50948520     3.75743382     0.17769466     1.06937337    -0.36596273
Ti      4.22786755     1.72522473     6.37061491    -0.17769466    -1.06937337     0.36596273
Ti      5.71919270     1.72522616     1.30655008     0.17925481    -1.06938211     0.36788849
Ti      0.91226511     2.50948394     8.82149870    -0.17925481     1.06938211    -0.36788849
Ti      2.40357791     0.39213026     1.30659071     0.17769466     1.06937337     0.36596273
Ti      4.22787984     3.84257978     8.82145813    -0.17769466    -1.06937337    -0.36596273
Ti      0.91225276     0.39212873     6.37057428    -0.17925481     1.06938211     0.36788849
Ti      5.71920499     3.84258131     3.75747439     0.17925481    -1.06938211    -0.36788849
O       2.09889916     1.49111333     5.16826571     1.72955474    -0.34699878     0.70670036
O       4.53255865     2.74359655     4.95978302    -1.72955474     0.34699878    -0.70670036
O       1.21687359     1.49113043     0.10427394    -1.72983293    -0.34696202     0.70589509
O       5.41458427     2.74357950    10.02377446     1.72983293     0.34696202    -0.70589509
O       4.53254636     0.62624150     0.10424107    -1.72955474     0.34699878     0.70670036
O       2.09891145     3.60846838    10.02380733     1.72955474    -0.34699878    -0.70670036
O       5.41457193     0.62622445     5.16829852     1.72983293     0.34696202     0.70589509
O       1.21688578     3.60848548     4.95975015    -1.72983293    -0.34696202    -0.70589509
O       0.24095043     2.57579067     2.73583860    -0.48003157     0.33055529     1.35866757
O       6.39050738     1.65891921     7.39221007     0.48003157    -0.33055529    -1.35866757
O       3.55667465     1.65887984     2.32821792    -0.47795077    -0.33071109    -1.35907278
O       3.07478311     2.57583009     7.79983059     0.47795077     0.33071109     1.35907278
O       0.24093809     0.45843562     2.32818560    -0.48003157     0.33055529    -1.35866757
O       6.39051967     3.77627425     7.79986291     0.48003157    -0.33055529     1.35866757
O       3.07477081     0.45847505     7.39224234     0.47795077     0.33071109    -1.35907278
O       3.55668695     3.77623483     2.73580628    -0.47795077    -0.33071109     1.35907278
