# total energy = -4986.22811519 eV

CRYSTAL
PRIMVEC
        3.76338566     0.00000000     0.00000000
        1.77099849     3.32063788     0.00000000
       -2.76722743    -1.66034016     4.97015093
PRIMCOORD
6 1
Ti      1.32816007     2.49060630     1.24253740     0.00112820    -0.00112820     0.00000000
Ti      1.43899650    -0.83030869     3.72761292    -0.00112820     0.00112820     0.00000000
O       0.44278862     0.83015524     0.80959687     0.00015247     0.00011261    -2.91038444
O       2.32436780     0.83014235     4.16055350    -0.00015247    -0.00011261     2.91038444
O      -0.44275285    -0.83013374     3.29467233     0.00011261     0.00015247    -2.91038444
O       3.20990920     2.49043124     1.67547799    -0.00011261    -0.00015247     2.91038444
