# total energy = -19517.66589223 eV

CRYSTAL
PRIMVEC
        5.17600016     0.00000000     0.00000000
        0.00000000     5.50899976     0.00000000
        0.00000000     0.00000000     9.26300011
PRIMCOORD
23 1
Ti      1.87745802     3.24853002     3.46409599    -1.29921645    -0.51185695     1.94957492
Ti      3.41020500     2.22970999     5.76494401     0.24060855    -0.52646365    -0.30490672
Ti      4.40747599     2.10710200     1.49418102     0.14110142     0.22797286    -2.57064132
Ti      0.87981999     3.39124802     7.66443998    -0.48127212     0.95002323     2.04498911
Ti      1.95089702     0.39907500     1.30879599     1.24943139    -1.52402119    -1.30555396
Ti      3.19348998     5.12105600     7.92543301    -1.34719376     1.47914643     1.38970183
Ti      0.72242902     0.46244699     5.97230598    -0.07421286    -0.93162261    -1.89853028
Ti      4.43336101     4.88967002     3.35642202     1.09887936     0.59048080     2.77308877
O       1.80665003     1.91170801     4.79496301    -0.94590920    -0.11407500    -1.27927985
O       3.49060300     3.55509997     4.44490702     0.90085729     0.38519562     0.31814585
O       5.09776898     2.82114600     9.19711500     0.27374186    -0.43328555     0.41827467
O       3.53439200     0.81468700     0.28723699    -0.90531764    -0.68112122    -1.00506825
O       1.77399201     4.61483399     9.12541302    -0.21615427     0.69460409     0.68917212
O       4.27736199     0.64970203     4.94560602    -0.77693238     0.67730467    -1.78798771
O       0.84743202     4.60062499     4.61144799     0.79250273    -0.32693954    -0.27367835
O       0.15536200     3.41038201     2.52235501     0.05416057    -0.16769255     0.08758620
O       0.04731199     2.13537599     6.58634601    -0.65557010     0.83699363     0.60221480
O       2.60286499     2.05359398     2.15674798     0.00240038     0.33942971    -0.09572323
O       2.82461899     3.41797702     7.23197602    -0.98562299    -1.21939626    -0.78643081
O       0.20847599     0.57670398     2.01236900    -0.24204760     0.36657697     0.64281357
O       4.88646501     4.91337801     7.29899198     2.25284436    -0.45151468    -0.45398782
O       2.40870102     0.83629500     6.76435600     0.64571789    -0.63040285     1.72560090
O       2.70331198     4.74316000     2.53156899     0.27720333     0.97066405    -0.87937494
