# total energy = -19075.97025005 eV

CRYSTAL
PRIMVEC
        7.60600008     0.00000000     0.00000000
        0.00000000     7.60600008     0.00000000
       -1.89786986    -1.89786986     4.85670466
PRIMCOORD
22 1
Ti      3.84174598     6.57890001     1.20908201     0.92549412     0.38970894    -1.33787608
Ti      3.76202701     2.86582502     1.16745000     0.06061712    -0.26260203     0.37063417
Ti      0.17693698     6.67911501     1.02799401    -0.56010680    -0.13120036     1.74046908
Ti     -0.07890800     2.83180299     1.17022098    -0.15086853     0.45496613     0.49945292
Ti      5.67284325     2.83509421     3.62066980    -0.40836872     0.58599037    -0.29035839
Ti      6.04347222    -0.85543878     3.64753983     0.24713067    -0.80858139     0.39403893
Ti      1.83089725     2.83892424     3.62481183     0.45067393    -0.86372952    -0.53350925
Ti      1.50331922    -1.13663479     3.80501584     0.21507749     1.75911447    -0.63895742
O       3.81430099     4.73374900     0.84425298    -0.11578350     0.97424123    -0.33978118
O       4.11554498     1.01673201     0.65062798    -0.72002459    -0.71263164     1.35007777
O      -0.15280199     4.80303000     0.76003501     0.71102290     0.41084650    -0.11639003
O      -0.29397299     0.96700200     0.77163103     0.94368057    -0.17944687    -0.02172377
O       5.96616123     4.81259223     4.08627482    -0.07349553     0.16260357    -2.03220918
O       5.68807620     0.98601020     4.02744883     0.41017390    -0.47596279    -0.38481407
O       2.12069921     4.72070225     4.09556479    -0.94905109     0.06560172     0.12204363
O       1.61044825     1.02004821     4.10236180     0.19180385    -0.91181096    -0.69528543
O       3.74064021     2.78620522     3.25321081     0.49516663    -0.06003245    -0.42530587
O      -0.03646179     2.86927425     3.13354579     0.24765261     0.12480808     0.57050949
O       5.62040898     6.60237500     1.82681602     0.71088303     0.19136291     0.72920986
O       5.69841198     3.05214600     1.63335400    -0.81206344    -0.48757647     0.20792622
O       2.13493101     6.62183697     1.96115200    -1.54743418     0.31447509     0.20259863
O       1.87232701     2.95464599     1.55454702    -0.27218042    -0.54014475     0.62924996
