# total energy = -19952.40054404 eV

CRYSTAL
PRIMVEC
        5.44300627     0.00000000     0.00000000
        1.69968623     5.53804736     0.00000000
        0.00000000     0.00000000     9.85575191
PRIMCOORD
24 1
Ti      2.98006044     3.28184176     3.65641366     0.99069861    -2.40098521     1.03286317
Ti      4.16263197     2.25620572     6.19933830    -0.99069861     2.40098521    -1.03286317
Ti      5.38669560     2.25620763     1.27142294    -2.13248069    -0.49314420     0.70554491
Ti      1.75599690     3.28184007     8.58432913     2.13248069     0.49314420    -0.70554491
Ti      2.13021745     0.51281818     1.27146245     0.99069861    -2.40098521    -1.03286317
Ti      5.01247499     5.02522947     8.58428962    -0.99069861     2.40098521     1.03286317
Ti      0.90615380     0.51281611     6.19929878     2.13248069     0.49314420     0.70554491
Ti      6.23653864     5.02523154     3.65645318    -2.13248069    -0.49314420    -0.70554491
O       2.32123424     1.95004066     5.02931476     1.00664948     1.53145785    -0.83393145
O       4.82145818     3.58800688     4.82643720    -1.00664948    -1.53145785     0.83393145
O       1.59728437     1.95006300     0.10147051     0.08959964    -0.49184528     0.75796278
O       5.54540811     3.58798458     9.75428118    -0.08959964     0.49184528    -0.75796278
O       3.97161516     0.81898313     0.10143853    -1.00664948    -1.53145785    -0.83393145
O       3.17107725     4.71906441     9.75431315     1.00664948     1.53145785     0.83393145
O       4.69556509     0.81896083     5.02934674    -0.08959964     0.49184528     0.75796278
O       2.44712728     4.71908677     4.82640523     0.08959964    -0.49184528    -0.75796278
O       1.23160253     3.36855438     2.66228447     0.22339655     0.85767045     0.74632776
O       5.91108989     2.16949316     7.19346749    -0.22339655    -0.85767045    -0.74632776
O       3.58509579     2.16944152     2.26562285     1.19539989     0.52714576    -0.23797214
O       3.55759662     3.36860602     7.59012894    -1.19539989    -0.52714576     0.23797214
O       0.38175946     0.59953064     2.26559137     0.22339655     0.85767045    -0.74632776
O       6.76093290     4.93851691     7.59016042    -0.22339655    -0.85767045     0.74632776
O       2.70775361     0.59958227     7.19349892    -1.19539989    -0.52714576    -0.23797214
O       4.43493881     4.93846527     2.66225299     1.19539989     0.52714576     0.23797214
