# total energy = -19958.55301431 eV

CRYSTAL
PRIMVEC
        5.67909460     0.00000000     0.00000000
        0.00002826     5.46862873     0.00000000
        0.00000000     0.00000000     9.70457589
PRIMCOORD
24 1
Ti      2.05841542     3.24070427     3.60032853     0.00506893    -0.12304996    -0.03903322
Ti      3.62070744     2.22792435     6.10424770    -0.00506893     0.12304996     0.03903322
Ti      4.89786375     2.22792623     1.25192082     0.00682088     0.12316643     0.03932684
Ti      0.78125917     3.24070267     8.45265557    -0.00682088    -0.12316643    -0.03932684
Ti      2.05840135     0.50639002     1.25195975     0.00506893    -0.12304996     0.03903322
Ti      3.62072157     4.96223877     8.45261664    -0.00506893     0.12304996    -0.03903322
Ti      0.78124504     0.50638802     6.10420882    -0.00682088    -0.12316643     0.03932684
Ti      4.89787783     4.96224082     3.60036746     0.00682088     0.12316643    -0.03932684
O       1.79747927     1.92559708     4.95217092     0.69076106     0.46202227     0.03432270
O       3.88164365     3.54303155     4.75240530    -0.69076106    -0.46202227    -0.03432270
O       1.04212122     1.92561919     0.09991405    -0.68984909     0.46097660     0.03398434
O       4.63700176     3.54300949     9.60466195     0.68984909    -0.46097660    -0.03398434
O       3.88162952     0.80871713     0.09988259    -0.69076106    -0.46202227     0.03432270
O       1.79749340     4.65991150     9.60469342     0.69076106     0.46202227    -0.03432270
O       4.63698763     0.80869507     4.95220244     0.68984909    -0.46097660     0.03398434
O       1.04213518     4.65993361     4.75237384    -0.68984909     0.46097660    -0.03398434
O       0.20635193     3.32633001     2.62144812     0.08772016    -0.13631608     0.19111865
O       5.47277099     2.14229866     7.08312810    -0.08772016     0.13631608    -0.19111865
O       3.04590426     2.14224777     2.23087085     0.08801635     0.13657448    -0.19073762
O       2.63321861     3.32638091     7.47370527    -0.08801635    -0.13657448     0.19073762
O       0.20633780     0.59201559     2.23083983     0.08772016    -0.13631608    -0.19111865
O       5.47278507     4.87661309     7.47373623    -0.08772016     0.13631608     0.19111865
O       2.63320453     0.59206649     7.08315907    -0.08801635    -0.13657448    -0.19073762
O       3.04591839     4.87656213     2.62141715     0.08801635     0.13657448     0.19073762
