# total energy = -19960.41845538 eV

CRYSTAL
PRIMVEC
        5.93400000     0.00000000     0.00000000
        0.00000000     9.29699974     0.00000000
        0.00000000     0.00000000     4.64899994
PRIMCOORD
24 1
Ti      4.50128102     6.95559902     2.33296400    -1.27120864    -0.85924577    -0.24241527
Ti      4.40756902     2.31388600     2.25299802     1.16507449     0.96958496     0.29331567
Ti      1.43256399     7.01728002     2.33799500     1.18406955    -1.48133161    -0.88861318
Ti      1.53048300     2.33987199     2.39533400    -1.20523616     0.77538947    -0.43500253
Ti      3.00147802     4.64547801     4.59898301     0.65934782     2.38249512     0.41228143
Ti      2.90946399     0.05740298     0.02521403     0.69213069    -1.80366502     0.28150865
Ti      0.04283902     4.55481999     0.00049399    -0.55911564     2.15865685     0.65381558
Ti      5.92317600     0.04253998     4.63871898    -1.15869429    -1.06592989    -0.39815296
O       4.49881299     5.54300501     0.97454701    -0.07905528    -1.04238269    -1.19431566
O       4.44812601     0.81029600     1.06580902    -0.43304232     0.00374996    -1.01044006
O       1.42675902     5.64622902     0.86237498    -0.13940886    -1.33463238    -0.29586544
O       1.38049099     0.85875101     0.98447299     1.42518127     0.32181430    -0.03384267
O       4.51621498     8.43254701     3.70783799    -0.57150425     0.67637882     0.72085815
O       4.36015500     3.70502102     3.71991800     0.71783479     0.02698888     0.01128303
O       1.54216898     8.40428100     3.67200502    -0.19711215     1.25429874     1.17818044
O       1.52796798     3.87108198     3.69032201    -0.30455191    -1.80278801    -0.78034758
O       3.06304398     6.05272801     3.24938200    -0.65600924     0.02336902     0.39371832
O       2.97530898     1.48193702     3.34857702    -0.51150677    -0.09059594    -0.36778410
O       5.90035301     5.96742898     3.18091202     0.56069353     0.65869399     0.15488408
O       5.79617600     1.49843698     3.23622898     1.59787796    -0.38424945     0.79704048
O       2.96822399     7.62752903     1.31906902    -0.22322634     2.32199986    -0.23654646
O       2.92845902     3.18489201     1.32869999    -0.48089803    -0.84023940     1.05866780
O       0.02445302     7.90100201     1.43722398     0.13595073     0.28029894    -0.38564479
O       0.06373898     3.28560900     1.42796200    -0.34759039    -1.14865850     0.31341733
