# total energy = -19073.65666151 eV

CRYSTAL
PRIMVEC
        5.93400000     0.00000000     0.00000000
        0.00000000     9.29699974     0.00000000
        0.00000000     0.00000000     4.64899994
PRIMCOORD
22 1
Ti      4.51201897     6.77067501     2.48016101    -0.32772321    -0.90185154    -0.81112936
Ti      4.27849401     2.45982298     2.19374101     0.94003449    -0.84915264    -0.29076077
Ti      1.70256901     7.31435600     2.45444902    -0.17318289     0.33740805    -1.76902736
Ti      1.47213502     2.42146498     2.13445300    -0.54418061    -0.63152488    -0.04367277
Ti      2.93480899     4.66555499     0.06785899     0.66792091     0.55392895    -1.24840166
Ti      3.00862900     0.06943001     4.60417101     0.19798504     1.36518481     1.29240199
Ti      5.88560500     4.55148999     4.39512599    -0.18642279    -0.27096738     0.87602557
Ti      5.82801802     8.79037698     0.15807202    -1.56836323     2.72190580     0.43467498
O       4.43362401     5.36621001     0.97403799     0.19612228     0.89542198     0.63292279
O       4.72465700     0.86928598     0.99200499    -1.27436955     0.03970119    -0.66490784
O       1.47949101     0.84484900     1.03723498     0.26075881    -0.46294709    -0.13365962
O       4.35332099     8.28126798     3.67357101     0.54166864     1.63387444     1.23385590
O       4.33545200     4.04913202     3.44268600     0.04267853    -1.14114548    -0.35912745
O       1.40863502     8.48312799     3.85361902     1.40327366     0.44678976    -0.94607427
O       1.57932903     3.78016901     3.52902598    -0.82090186     0.61261826     1.01693210
O       2.85274402     6.32521000     3.35680001     0.11008645    -2.20340023     1.03642827
O       3.02447998     1.46328501     3.25959501     0.28681695    -0.08540668     0.16235648
O       0.01707502     6.27390299     3.63374302     1.00671325    -0.54573947    -0.53639197
O       3.25175599     7.87975797     1.40075901    -2.05719182    -0.36302087     0.26566525
O       2.86921799     3.23503399     1.25597601     0.39851934     0.02105580    -0.30715592
O       5.87795399     7.82638801     1.60875499     1.11340044    -1.47572043     0.55254904
O       5.91129899     3.16096701     1.33563301    -0.21364333     0.30298765    -0.39350363
