# total energy = -19074.66681071 eV

CRYSTAL
PRIMVEC
        7.60600008     0.00000000     0.00000000
        0.00000000     7.60600008     0.00000000
       -1.89786986    -1.89786986     4.85670466
PRIMCOORD
22 1
Ti      3.75037199     6.54123201     1.34823002     0.94135835     0.78934850    -0.99305040
Ti      3.74794402     2.82288800     1.19156101    -0.59141128    -1.33323344     0.10049520
Ti     -0.05785199     6.64100801     1.10346601     0.45567215     0.37168061     1.46298987
Ti     -0.13024100     2.87662103     1.08747899     0.35679083     0.13856837    -0.69201036
Ti      5.64602121     3.05224924     3.53772682    -0.29361803    -0.92917929    -0.22365495
Ti     -1.33903276    -0.77026480     3.78844079    -2.04321376     0.01549990    -0.97270885
Ti      1.78615023     2.75866821     3.65252881     1.03742097    -0.85574650    -0.33125308
Ti      1.94681823    -1.14959778     3.79055480    -1.18963110     1.06869948    -1.08823601
O       3.68013599     4.57720599     0.72348600    -0.54629946     1.76431864     0.63338147
O       3.85874400     0.85599998     0.77463199    -0.04231832    -0.44881039     2.62359938
O      -0.00759099     4.85268598     0.64239001     0.19780018    -0.65871662     0.49930173
O       7.23722302     0.87831999     0.60891701     0.70401947     2.59934949     1.21669635
O       5.76472022     4.88475920     4.08683082     0.78094099    -0.15649051    -2.27690527
O       5.42199022     1.09863224     3.91599484     1.69446997    -1.50965695     0.55256216
O       1.97338923     4.60128721     4.29439282    -0.19027173     0.10776834    -1.56278522
O       2.10563025     0.80899623     4.06839482    -0.47511356     0.38056429    -0.67385014
O       3.70303624     2.91213723     3.16542279     0.18397741     0.32462041    -0.60728811
O       0.00982523     2.85769225     3.09285179    -0.62285511    -0.05905878     0.53333775
O       5.74926401     6.73726202     1.89014398     0.05505994    -0.89697878     0.98802286
O       5.71029000     3.29928601     1.56322500    -0.93568855    -1.20188370     0.78066434
O       1.92800598     6.54022303     1.84102501    -0.20639975     0.24426235    -0.28443508
O       1.76016302     2.63730897     1.35335399     0.72931039     0.24507482     0.31512609
