# total energy = -19953.73300475 eV

CRYSTAL
PRIMVEC
        5.47683627     0.00000000     0.00000000
        1.43486131     5.64964866     0.00000000
        0.00000000     0.00000000     9.88102257
PRIMCOORD
24 1
Ti      2.83538727     3.34797673     3.66578908     0.68043216    -2.00533600     0.95215982
Ti      4.07631046     2.30167230     6.21523404    -0.68043216     2.00533600    -0.95215982
Ti      5.30798195     2.30167426     1.27468303    -1.41937648    -0.51387938     0.47326545
Ti      1.60371582     3.34797500     8.60634020     1.41937648     0.51387938    -0.47326545
Ti      2.11795673     0.52315244     1.27472264     0.68043216    -2.00533600    -0.95215982
Ti      4.79374103     5.12649681     8.60630059    -0.68043216     2.00533600     0.95215982
Ti      0.88628517     0.52315027     6.21519442     1.41937648     0.51387938     0.47326545
Ti      6.02541259     5.12649892     3.66582870    -1.41937648    -0.51387938    -0.47326545
O       2.23869233     1.98933746     5.04221042     1.08110711     1.48350933    -0.70171705
O       4.67300535     3.66031158     4.83881270    -1.08110711    -1.48350933     0.70171705
O       1.51024178     1.98936026     0.10173069    -0.14250062    -0.28432169     0.73485395
O       5.40145602     3.66028888     9.77929215     0.14250062     0.28432169    -0.73485395
O       3.95557480     0.83548713     0.10169863    -1.08110711    -1.48350933    -0.70171705
O       2.95612294     4.81416191     9.77932421     1.08110711     1.48350933     0.70171705
O       4.68402546     0.83546437     5.04224248     0.14250062     0.28432169     0.73485395
O       2.22767223     4.81418473     4.83878064    -0.14250062    -0.28432169    -0.73485395
O       1.07175011     3.43643671     2.66911086     0.17772449     0.82058716     0.74825558
O       5.83994757     2.21321233     7.21191226    -0.17772449    -0.82058716    -0.74825558
O       3.49949917     2.21315965     2.27143215     0.99058034     0.64218339    -0.08017294
O       3.41219858     3.43648944     7.60959081    -0.99058034    -0.64218339     0.08017294
O       0.35431956     0.61161225     2.27140059     0.17772449     0.82058716    -0.74825558
O       6.55737819     5.03803684     7.60962237    -0.17772449    -0.82058716     0.74825558
O       2.69476801     0.61166493     7.21194376    -0.99058034    -0.64218339    -0.08017294
O       4.21692972     5.03798410     2.66907930     0.99058034     0.64218339     0.08017294
