# total energy = -19931.14688230 eV

CRYSTAL
PRIMVEC
        6.93421436     0.00000000     0.00000000
        0.00002930     5.45485732     0.00000000
        0.00000000     0.00000000    11.04033747
PRIMCOORD
24 1
Ti      2.51333657     3.23254344     4.09588646     0.45980880    -0.57003949     0.88998743
Ti      4.42090714     2.22231407     6.94445107    -0.45980880     0.57003949    -0.88998743
Ti      5.98032399     2.22231596     1.42423820     0.45982063     0.56979061    -0.88985451
Ti      0.95391973     3.23254179     9.61609946    -0.45982063    -0.56979061     0.88985451
Ti      2.51332204     0.50511490     1.42428246     0.45980880    -0.57003949    -0.88998743
Ti      4.42092167     4.94974279     9.61605520    -0.45980880     0.57003949     0.88998743
Ti      0.95390520     0.50511282     6.94440681    -0.45982063    -0.56979061    -0.88985451
Ti      5.98033851     4.94974487     4.09593072     0.45982063     0.56979061     0.88985451
O       2.19473298     1.92074803     5.63379971     0.86258666     1.24785890    -0.98411735
O       4.73951080     3.53410948     5.40653783    -0.86258666    -1.24785890     0.98411735
O       1.27243544     1.92077003     0.11366648    -0.86194620     1.24770540    -0.98462335
O       5.66180840     3.53408753    10.92667074     0.86194620    -1.24770540     0.98462335
O       4.73949627     0.80668075     0.11363066    -0.86258666    -1.24785890    -0.98411735
O       2.19474750     4.64817675    10.92670656     0.86258666     1.24785890     0.98411735
O       5.66179387     0.80665881     5.63383553     0.86194620    -1.24770540    -0.98462335
O       1.27244984     4.64819875     5.40650201    -0.86194620     1.24770540     0.98462335
O       0.25195388     3.31795343     2.98227059    -1.29518753     0.25271357     0.11589200
O       6.68228990     2.13690407     8.05806695     1.29518753    -0.25271357    -0.11589200
O       3.71906853     2.13685319     2.53793329    -1.29558631    -0.25246803    -0.11589920
O       3.21517525     3.31800437     8.50240406     1.29558631     0.25246803     0.11589920
O       0.25193935     0.59052477     2.53789803    -1.29518753     0.25271357    -0.11589200
O       6.68230442     4.86433279     8.50243932     1.29518753    -0.25271357     0.11589200
O       3.21516072     0.59057565     8.05810215     1.29558631     0.25246803    -0.11589920
O       3.71908305     4.86428185     2.98223532    -1.29558631    -0.25246803     0.11589920
