# total energy = -19068.59189905 eV

CRYSTAL
PRIMVEC
        5.17600016     0.00000000     0.00000000
        0.00000000     5.50899976     0.00000000
        0.00000000     0.00000000     9.26300011
PRIMCOORD
22 1
Ti      1.52388199     3.66005800     3.55191501     0.96734270    -0.73817428    -2.20508868
Ti      3.53664201     2.67060200     6.13416400     2.38274169    -2.56704100    -2.61744981
Ti      4.26422300     2.15552500     1.25724699     1.06634023     1.69917895     3.46394162
Ti      1.26599799     2.09005000     7.96066097    -0.71897918     0.71695187    -0.85015280
Ti      1.79277002     0.59726998     1.23804902    -1.03436084     0.78545971     0.99042813
Ti      3.50577700     5.35437898     8.06847301    -0.72948754    -1.95562061    -1.19382740
Ti      0.68487199     5.29815602     6.08866502    -1.27586388     1.73025100     1.29480418
Ti      4.21475302     5.24893200     3.41193102    -1.16537659     0.41105373     1.89505389
O       3.26098802     3.70211198     4.44507498     0.12427843    -0.52614046     1.85318063
O       0.99924302     2.27266002     0.53033398    -0.88309327    -0.44306655    -1.68353275
O       0.34652601     3.28329798     6.87445498    -2.06928270     2.30047278    -1.37862885
O       3.54627102     0.73232898     0.35878302     2.15595282     0.34594874     0.94482574
O       1.77384897     5.48733302     8.62643099    -3.68608295     0.66574422    -0.15807611
O       4.40076300     1.06318499     4.90851799    -1.46046658    -0.82839123    -1.54448384
O       0.92320401     5.30304599     4.34435001     1.19898375    -3.25653476    -1.68909019
O       5.09473901     3.52363298     2.31425500     0.04823674     1.22497119     2.00617418
O       4.53957800     0.96006099     7.04872802     0.93295727     0.23345728     2.65698002
O       2.57303802     1.93384000     2.38416100     1.04945785     0.16012759    -0.23181563
O       2.72563400     3.59021501     7.42088901    -0.03174619     0.06244903     1.41388949
O       5.16201099     0.83778501     2.38643901     1.06675932     0.56689143    -2.79217047
O       1.92036101     1.23861100     6.37684400     1.42132872    -0.57439006    -0.73055249
O       2.43319901     4.68984999     2.26084799     0.64036048    -0.01359883     0.55559220
