# total energy = -39033.79687532 eV

CRYSTAL
PRIMVEC
        5.93200024     0.00000000     0.00000000
        0.00000000     9.29399984     0.00000000
        0.00000000     0.00000000     9.29399984
PRIMCOORD
46 1
Ti      4.49894401     6.95435000     7.08871398    -1.53978823     0.08504955    -0.95379118
Ti      4.50322299     7.10616201     2.29391501     2.95672834    -0.23906820     0.27933606
Ti      4.43178602     2.37964903     7.06760499    -0.06852712    -0.55508107     0.09709338
Ti      4.15026102     2.49697403     1.88822497     1.63396160    -0.56100849     1.26562934
Ti      1.50842600     6.98111801     6.87602399     1.36955671    -0.14616316     0.07537629
Ti      1.63019402     6.83995701     2.46458700    -3.33778139     0.81795358    -0.91711592
Ti      1.50078399     2.41714298     6.90865602     0.17904115    -0.05522346     0.69171082
Ti      1.23623399     1.92281200     2.48999402     0.41160523     1.72076208    -0.26492785
Ti      3.15905398     4.71522097     4.62455100     1.10538374    -0.72335443     1.32811077
Ti      2.96154101     4.88260402     9.10955500    -0.27504129    -1.39579175    -0.04822517
Ti      2.88015201     0.04727098     4.67993702     0.07753319     0.04069621     0.06646895
Ti      2.97525400     9.22161897     0.16127698    -0.48370542     1.53671191    -1.56241472
Ti      0.18447003     4.54161199     4.47337401    -0.31865776     0.01672246     0.07207730
Ti      0.01231798     4.73937299     9.25149002     0.09777343    -1.45533209     0.97650046
Ti      5.82613399     9.08417100     4.93373001    -0.37769391     1.68354303    -1.18979668
Ti      0.04637101     9.26512100     9.20798599    -0.06249326    -0.20367695    -0.09651488
O       4.46801402     5.79516802     5.53178301    -0.86167109    -1.84208503    -0.73244920
O       4.40483100     5.50792400     0.82026702     0.46028651     1.65213263     1.48035922
O       4.46262398     0.94285601     5.80908099     0.01979827    -1.71335421    -1.94321992
O       4.64846299     1.02874597     0.83686900    -2.25734868    -0.24700392     1.02627832
O       1.40491998     5.71202999     5.47935202     0.34468170    -1.57160590    -0.79276833
O       1.66146898     5.64148098     0.85157299    -1.19100845    -0.09060622     0.62010995
O       1.38911801     0.85068598     5.62060298     0.26168801     0.85787717    -0.04466136
O       1.35172799     0.82267700     0.99195800     1.05435015     0.63963825     0.11762133
O       4.27551802     8.34245199     8.45095200     1.40974101    -0.06751514    -0.18984159
O       4.41056998     8.21782498     3.90993899     0.38015008     0.59830467    -0.24243275
O       4.45146099     3.76042101     8.49837899     0.18862340    -0.46707397    -0.57881313
O       4.47933799     3.85706402     3.61046001    -0.89708805    -0.69717134     0.45365898
O       1.54997599     8.26439998     8.47672399    -0.29725589     0.82565892     0.07652943
O       1.36856799     8.43296199     3.85205800     0.34357870    -0.48641305    -0.54853452
O       1.53574398     3.87637301     8.20484399    -0.61228685    -0.13784846     0.88603513
O       1.52494701     3.60077702     3.59049902    -0.04056482    -0.09841904     0.67522568
O       2.88401998     6.14734898     7.86391102     1.28506663    -0.28930449    -0.42827473
O       2.97320699     5.96291001     3.27290901     0.83784544     1.12200207    -0.97011204
O       2.98508601     1.61861901     8.02849102    -0.70153707    -0.56239791    -0.46271544
O       3.00442998     1.19704598     3.16151101    -0.08734992     1.40602731    -0.33609473
O       5.86456401     5.96913002     7.81600201     0.53471612     0.27181790     0.69649179
O       0.08612799     5.80686702     2.96759099     0.05767655     1.55283581     0.52849225
O       0.00673399     1.46470902     8.04717600     0.53787344     0.43475211    -1.62375972
O       2.92592299     7.86593502     6.13030100     0.08152688     0.83452177    -0.49810154
O       3.04435799     8.03172800     1.53671698    -0.20841036    -1.20488804     1.06571828
O       2.99829501     3.16588503     5.93210401    -0.39452564     0.57333693     0.42428643
O       0.03987800     7.84810698     6.16059000    -1.19882872     0.14989897     0.99793087
O       0.15944201     8.00340098     1.56153999    -1.92344659    -1.38611771    -0.06740792
O       5.88635802     3.25741999     5.96183600     0.60772828    -0.10398933     0.60010856
O       5.81703299     3.23455800     1.47748098     0.89809618    -0.51975101    -0.00917653
