# total energy = -4989.26386290 eV

CRYSTAL
PRIMVEC
        4.05035285     0.00000000     0.00000000
       -0.00000902     4.05035285     0.00000000
       -2.02520819    -2.02521270     5.16915104
PRIMCOORD
6 1
Ti     -0.00017837     3.03791804     1.29228762     0.00010387    -0.00010387     0.00000000
Ti      2.02531389    -1.01277801     3.87686308    -0.00010387     0.00010387     0.00000000
O       0.00004046     1.01258133     0.84201241    -0.00034838    -0.00152646    -0.77018786
O       2.02509496     1.01255859     4.32713835     0.00034838     0.00152646     0.77018786
O      -0.00002288    -1.01256375     3.42658787    -0.00152646    -0.00034838    -0.77018786
O       2.02515824     3.03770361     1.74256289     0.00152646     0.00034838     0.77018786
