# total energy = -19071.31235102 eV

CRYSTAL
PRIMVEC
        5.17600016     0.00000000     0.00000000
        0.00000000     5.50899976     0.00000000
        0.00000000     0.00000000     9.26300011
PRIMCOORD
22 1
Ti      1.37889700     3.06683299     3.22958601    -0.31708064     0.49699288     1.82304883
Ti      4.69277100     3.17250202     5.50164700    -0.77917490    -1.95787650     1.76773641
Ti      4.24517298     1.94905898     1.54194900    -0.19050622     0.36852818     2.70322364
Ti      1.23671200     2.90263601     8.13441998    -0.07656054     1.19723643    -0.60881406
Ti      1.59789902     0.52031300     1.21392499    -0.24719341    -1.60484642     0.69953212
Ti      3.37882802     5.28911698     7.98989198    -0.09943205    -0.77797240     1.03189490
Ti      1.47528997     0.19243801     6.04230602    -0.16297432     1.02653826    -0.39919400
Ti      3.75285198     4.93983502     3.60667602     1.04713229     0.93433924    -2.09598233
O       3.17993198     3.36833602     4.44271199    -0.94702558    -1.62565411     1.66961819
O       0.58149198     2.24490298     0.63709501     1.64427507     0.01396727    -2.74475880
O       4.66212799     3.74730599     7.42614200     1.04355845     0.19206482     0.03153099
O       3.48209701     0.59009100     0.72339001    -0.66978625    -1.04344275    -3.66604120
O       2.10837102     4.41875402     9.10788402    -1.37730139    -0.15088370     2.18702744
O       2.84054500     0.22852599     4.87000199     0.23032773     2.17570841     1.05032586
O       0.33563602     4.60603398     4.84774400    -0.04496115     1.32708362    -0.02514026
O       4.72261099     3.38123900     2.78978002     1.55645259     0.01885853    -1.74148852
O       0.81037299     2.04173501     4.82091699    -0.29917573    -0.36696778     0.62901214
O       2.33962799     1.79310399     2.40960400     1.16583811     0.32432139    -0.13979684
O       2.22147001     4.19222901     6.95034100    -0.91607617    -0.64005169    -2.21140536
O       5.10405603     0.66223199     2.55693103    -0.13110960    -0.35910791    -0.01564568
O       2.25163301     1.28135498     7.47667102    -0.19086051     0.55579275     0.65755653
O       2.15879298     4.66562098     2.56934701    -0.23836578    -0.10462825    -0.60224000
