# total energy = -4988.94153289 eV

CRYSTAL
PRIMVEC
        3.41183434     0.00000000     0.00000000
        0.00000000     3.95126810     0.00000000
        0.00000000    -0.00006234     4.75555031
PRIMCOORD
6 1
Ti      1.70591722     1.97560272     2.37777516     0.00000000     0.00000000     0.00000000
Ti      0.00000000     0.00000000     0.00000000     0.00000000     0.00000000     0.00000000
O       1.70591722     0.77003174     0.92678670     0.00000000    -0.07722285    -0.08245762
O       1.70591722     3.18117364     3.82876356     0.00000000     0.07722285     0.08245762
O       0.00000000     1.20554578     3.30456291     0.00000000     0.07790060    -0.08266845
O       0.00000000     2.74565966     1.45098741     0.00000000    -0.07790060     0.08266845
