# total energy = -19070.62609961 eV

CRYSTAL
PRIMVEC
        5.17600016     0.00000000     0.00000000
        0.00000000     5.50899976     0.00000000
        0.00000000     0.00000000     9.26300011
PRIMCOORD
22 1
Ti      1.69485699     3.37001901     3.55745899    -3.16583572    -0.56508883    -2.54203084
Ti      3.89668003     2.11091700     5.59593099     0.62722651    -0.03056966     1.70615049
Ti      4.09385501     2.17518499     1.68502297     0.77742681    -1.65185726    -0.24522060
Ti      1.02852102     2.98946299     8.11614902    -0.11950312     1.71880547     1.30092135
Ti      1.60161300     0.45231103     1.28071399    -0.09920245     0.11155892    -0.62332460
Ti      3.56017298     5.12797198     8.07939798    -2.63489372     0.77870902    -0.27583088
Ti      1.62302102     0.43959299     5.68027301    -2.86729351    -0.31539863     3.35617662
Ti      4.12974397     4.95172500     3.65484401     1.47962311     0.13599341    -0.44476322
O       3.02403901     3.49516102     4.63501099     3.05148047    -0.39247184     2.93772094
O       0.66116898     2.20630601     0.53994601    -0.23931091    -0.74541116    -1.48746832
O       4.54970301     3.53533600     7.58711200     0.44823575     0.09324238    -0.38579186
O       3.23728300     0.84296401     0.44410799     0.41521326    -0.05936962    -1.49158337
O       1.46324601     4.68649199     9.09831401     0.05239113    -0.10775420     1.23710886
O       2.91238499     0.70894501     4.62532302     4.61975936     1.02573942    -1.56909470
O       0.88261500     4.86714300     4.37921401    -2.13022404    -0.42025597     1.12504446
O       4.92696601     3.32838800     2.90912600    -0.17166877     0.06791392    -1.05210840
O       0.36798298     1.76639303     4.87380899     0.54201292     0.58590989     0.88610249
O       2.39025702     1.87618498     2.50710698     0.02290340     1.37513370    -0.33134179
O       2.19053701     4.54031599     6.85560298    -0.33136467    -1.77520135     0.28834701
O       4.83176501     0.58342898     2.26730200     1.34198728    -0.07445583     0.61098381
O       3.13780402     1.21503102     7.13044500    -0.03265277     1.21877843    -0.69478844
O       2.61183200     4.81264600     2.61114301    -1.58631082    -0.97394967    -2.30520875
