# total energy = -19952.48617463 eV

CRYSTAL
PRIMVEC
        4.84537510     0.00000000     0.00000000
        0.51443488     5.13122126     0.00000000
        0.00000000     0.00000000     8.68304159
PRIMCOORD
24 1
Ti      2.06106911     3.04075700     3.22134658     1.02440527     0.12554753    -0.15306734
Ti      3.29874102     2.09046431     5.46169531    -1.02440527    -0.12554753     0.15306734
Ti      4.38840458     2.09046605     1.12013968    -1.39608254    -0.78631126     1.31404298
Ti      0.97140555     3.04075550     7.56290235     1.39608254     0.78631126    -1.31404298
Ti      1.80385177     0.47514641     1.12017452     1.02447880     0.12274143     0.14256027
Ti      3.55595836     4.65607509     7.56286752    -1.02447880    -0.12274143    -0.14256027
Ti      0.71418815     0.47514452     5.46166053     1.39609796     0.78385920     1.32685350
Ti      4.64562194     4.65607693     3.22138141    -1.39609796    -0.78385920    -1.32685350
O       1.71473313     1.80679025     4.43088977    -1.38556852    -1.02647321    -0.39238057
O       3.64507699     3.32443111     4.25215211     1.38556852     1.02647321     0.39238057
O       1.07026744     1.80681100     0.08939678     1.40547247    -1.30321091    -0.06105267
O       4.28954274     3.32441040     8.59364490    -1.40547247     1.30321091     0.06105267
O       3.38785964     0.75882032     0.08936863     1.38637739     1.02648761    -0.39283848
O       1.97195048     4.37240103     8.59367306    -1.38637739    -1.02648761     0.39283848
O       4.03232539     0.75879962     4.43091797    -1.40403573     1.30177444    -0.06045926
O       1.32748468     4.37242174     4.25212396     1.40403573    -1.30177444     0.06045926
O       0.48895212     3.12109976     2.34550621    -0.76648188    -0.38041517    -1.05350451
O       4.87085796     2.01012159     6.33753567     0.76648188     0.38041517     1.05350451
O       2.80026257     2.01007381     1.99604234     0.03176188    -1.01870205    -0.53667145
O       2.55954755     3.12114750     6.68699945    -0.03176188     1.01870205     0.53667145
O       0.23173477     0.55548898     1.99601458    -0.76552851    -0.37995597     1.05673845
O       5.12807530     4.57573233     6.68702716     0.76552851     0.37995597    -1.05673845
O       2.30233021     0.55553676     6.33756338    -0.03022821     1.01754839    -0.53937908
O       3.05747992     4.57568459     2.34547851     0.03022821    -1.01754839     0.53937908
