# total energy = -19071.39988587 eV

CRYSTAL
PRIMVEC
        5.17600016     0.00000000     0.00000000
        0.00000000     5.50899976     0.00000000
        0.00000000     0.00000000     9.26300011
PRIMCOORD
22 1
Ti      1.68508298     3.47525401     3.22532698     1.03069496     0.90929540     0.80368189
Ti      3.89159098     2.33713598     5.91923400    -1.81102866     0.66614197    -1.67630486
Ti      4.21132300     2.49615999     1.48059900     0.95101979    -1.60444636     0.46013225
Ti      1.30162802     2.40254499     7.84439401    -0.94269430     1.37272766    -1.65632584
Ti      1.57670198     0.66808300     1.57899300    -0.53887154     1.00264576    -1.27490126
Ti      3.21974098     0.09649600     7.89924498    -1.36688534    -1.85165956     0.32479421
Ti      0.68173598     5.20049302     6.44664703    -0.54961747    -0.26700788    -0.54848670
Ti      4.35534801     5.01079700     3.50023302    -0.20779278     0.52441885     2.18652145
O       3.65046401     3.36017600     4.13075200     0.11221224     0.03069281     1.42232194
O       0.92745399     2.27611603     0.35878302    -0.77227663    -0.62784126     0.32504618
O       5.08385701     3.41307499     6.90868301     0.43351489     0.66831121     0.04801614
O       3.26943898     0.89019398     0.24887899     0.33270884     0.97287340     1.03331723
O       1.41542600     5.05816900     8.20861200    -0.45552406    -0.82183312     1.39557012
O       4.30768300     0.67025998     4.94213599    -0.42129366     0.07930648     0.03733269
O       0.96079798     4.59888702     4.67384000     0.45611336    -1.39974250    -1.54531328
O       0.10946100     4.07961999     2.07141201     0.66006310    -0.10790384    -0.47480991
O       4.60731501     1.12796502     7.21348000     1.57138916    -0.18238693     1.20958133
O       2.59539703     1.93041702     2.52189700    -0.53916670     1.05667777    -0.80639518
O       2.53225401     3.40968000     6.65467200     0.46047781     0.94574003     1.06807984
O       5.15901299     1.26875903     2.58195201     0.53435617    -0.43747362    -0.79958278
O       2.04122398     1.12757300     6.61439500     1.20863953    -0.13198377    -0.80993122
O       2.63800701     5.04507102     2.60140800    -0.14603846    -0.79655299    -0.72234373
