# total energy = -19905.23707612 eV

CRYSTAL
PRIMVEC
        6.64213699     0.00000000     0.00000000
        3.32673059     6.23755232     0.00000000
        0.00000000     0.00000000    12.30187369
PRIMCOORD
24 1
Ti      4.37887269     3.69636773     4.56390742    -0.01946532    -2.19981148     0.31845464
Ti      5.58999507     2.54118474     7.73796640     0.01946532     2.19981148    -0.31845464
Ti      7.08372862     2.54118697     1.58698034    -0.54297374    -1.46954901     0.57915997
Ti      2.88513935     3.69636580    10.71489354     0.54297374     1.46954901    -0.57915997
Ti      2.71550765     0.57759178     1.58702969    -0.01946532    -2.19981148    -0.31845464
Ti      7.25336024     5.65996094    10.71484426     0.01946532     2.19981148     0.31845464
Ti      1.22177399     0.57758938     7.73791705     0.54297374     1.46954901     0.57915997
Ti      8.74709388     5.65996327     4.56395670    -0.54297374    -1.46954901    -0.57915997
O       3.27367675     2.19634825     6.27755200     1.76054760     1.95245481    -0.91174617
O       6.69519108     4.04120427     6.02432181    -1.76054760    -1.95245481     0.91174617
O       2.39024090     2.19637336     0.12665469     0.29715921    -1.28567264     1.86436236
O       7.57862701     4.04117921    12.17521873    -0.29715921     1.28567264    -1.86436236
O       5.03182592     0.92242808     0.12661477    -1.76054760    -1.95245481    -0.91174617
O       4.93704191     5.31512438    12.17525866     1.76054760     1.95245481     0.91174617
O       5.91526185     0.92240302     6.27759186    -0.29715921     1.28567264     1.86436236
O       4.05360593     5.31514952     6.02428189     0.29715921    -1.28567264    -1.86436236
O       2.26483030     3.79403287     3.32304299     0.64619045     3.26811784     3.03216556
O       7.70403754     2.44351966     8.97883076    -0.64619045    -3.26811784    -3.03216556
O       4.86559950     2.44346140     2.82793299     0.49878083     2.17838056     2.09124918
O       5.10326833     3.79409112     9.47394057    -0.49878083    -2.17838056    -2.09124918
O       0.60146513     0.67525668     2.82789372     0.64619045     3.26811784    -3.03216556
O       9.36740269     5.56229579     9.47397983    -0.64619045    -3.26811784     3.03216556
O       3.43990317     0.67531493     8.97886996    -0.49878083    -2.17838056     2.09124918
O       6.52896466     5.56223753     3.32300372     0.49878083     2.17838056    -2.09124918
