# total energy = -4985.96805765 eV

CRYSTAL
PRIMVEC
        4.20842842     0.00000000     0.00000000
        1.42917302     3.95832468     0.00000000
       -2.81883911    -1.97918930     5.45763230
PRIMCOORD
6 1
Ti      1.07175843     2.96889534     1.36440813     0.00034350    -0.00034350     0.00000000
Ti      1.74700316    -0.98976047     4.09322428    -0.00034350     0.00034350     0.00000000
O       0.35733709     0.98957572     0.88900376    -0.00068134    -0.00121433    -1.54892774
O       2.46142430     0.98955901     4.56862877     0.00068134     0.00121433     1.54892774
O      -0.35730296    -0.98955181     3.61781991    -0.00121433    -0.00068134    -1.54892774
O       3.17606429     2.96868649     1.83981262     0.00121433     0.00068134     1.54892774
