# total energy = -19076.21517833 eV

CRYSTAL
PRIMVEC
        7.60600008     0.00000000     0.00000000
        0.00000000     7.60600008     0.00000000
       -1.89786986    -1.89786986     4.85670466
PRIMCOORD
22 1
Ti      3.76138702     6.50204500     1.11008401     0.01032273    -0.37091005     0.70991758
Ti      3.78137400     2.78687801     1.19571097    -0.04381676     0.78836660     0.69550757
Ti      0.02261000     6.69053799     1.15085500    -0.48712781    -0.74457195     0.07464867
Ti     -0.02911099     2.93399903     1.19792997    -0.37709124     0.70666000     0.22678115
Ti      5.74223125     2.86926123     3.56823182    -0.57431035     0.61457333     0.57140141
Ti      5.93794322    -0.85974978     3.73062881    -0.87161818    -0.63424279    -1.09530089
Ti      1.92536121     2.72441922     3.53865881     0.00678257     1.18484731     0.85317848
Ti      1.92802625    -0.98355276     3.76582883    -0.85241923    -1.04633473    -0.20101818
O       3.46866099     4.66336600     0.71515898     0.74142749     0.36931571    -0.02887761
O       3.71482398     0.91758600     1.08983102     0.31452548    -0.59195867    -1.53992090
O       0.10154800     4.77043702     0.68597199    -0.39058877     0.36768511     0.59518875
O      -0.20501501     1.10277999     0.76262501     0.37479062    -1.45722905     0.84137068
O       5.90225820     4.81202422     4.13666784    -0.21879068     1.01552468    -0.51464377
O       5.63027523     1.00802921     3.97823979     0.44637607    -0.17825953    -0.45925293
O       1.79884524     4.66683925     4.06170379     0.44359645     1.44896526     0.41245241
O       1.89701921     0.86414920     3.91131479     0.19631306     0.19547745     1.01802585
O       3.80013021     3.03816021     3.22617483    -0.49406825    -0.61980450     0.18406791
O      -0.04977076     3.01579522     3.13214580     0.41681454    -0.82390363     0.04923253
O       5.64127000     6.42555100     1.84346901     0.34192497     0.62930164    -0.21323915
O       5.60168399     3.09963902     1.62136898     0.79122027    -0.41485819    -0.72102373
O       1.77041800     6.57595699     1.89594398     0.60508364     0.25664941    -0.47113632
O       1.87667700     2.90749598     1.68465599    -0.37934636    -0.69529340    -0.98735900
