# total energy = -19960.76460692 eV

CRYSTAL
PRIMVEC
        7.60600008     0.00000000     0.00000000
        0.00000000     7.60600008     0.00000000
       -1.89786986    -1.89786986     4.85670466
PRIMCOORD
24 1
Ti      3.73027299     6.63939899     1.14627502     1.10784094     0.71846188     1.14256987
Ti      3.87590802     2.95213599     1.20048500     0.44257006    -1.32598087    -0.13231082
Ti     -0.03640702     6.62140802     1.18950801    -1.07362083     0.64227363    -0.72543163
Ti      0.04644102     2.88647902     1.22952000    -0.89532556    -0.69172805     0.94005660
Ti      5.75908824     2.72491522     3.68589280    -1.38973937     1.39943706    -0.25453751
Ti      5.72103024    -0.98046278     3.66669679    -0.61386242    -1.09896163     0.39771355
Ti      1.89006820     2.92036425     3.57973180     0.91096147    -1.60196936    -0.12144816
Ti      1.83381021    -0.99092076     3.56894981     0.49302721     1.78066983     1.21290088
O       3.83244198     4.76419199     0.76146199    -0.08194109     2.32815663    -0.28721804
O       3.81994700     1.10126501     0.68596601     0.07316025    -2.24764868     0.37977033
O      -0.09060298     4.74594199     0.82570802     0.34326323    -0.24302899    -0.02056241
O      -0.29089101     0.94738402     0.90172899     1.07029948    -0.70429432    -0.32544110
O       5.72588221     4.67390424     4.07145383    -0.19075227     0.96236273     1.03121355
O       5.90660021     0.88938921     4.24716079     0.00163265    -0.21856313    -1.81026787
O       1.94360925     4.82466721     3.94518182     0.11687879    -1.34493608     1.04341730
O       1.72344024     1.03560522     4.08071983     0.56777744     0.19659870    -1.01680277
O       3.89089321     2.81997821     3.36155482    -1.30333870    -0.26733929    -1.03985015
O       3.84368922    -0.97878878     3.12138080    -1.18705614     0.43054064     0.06828210
O      -0.06889475     2.84784622     3.29270479     2.28600055     0.26051352    -0.74377080
O      -0.02569478    -1.22660477     3.34313983     0.42940498     0.94825302    -0.80531223
O       5.71020602     6.59057900     1.75391698    -0.05784059     0.26451442    -1.00645099
O       5.72493398     2.96631699     1.58352403    -0.04514293    -0.27391438     0.74698802
O       1.86116698     6.62948999     1.59074200     0.33904790     0.42750545    -0.21494328
O       1.98493598     3.00078998     1.58030499    -1.34324506    -0.34092275     1.54143580
