# total energy = -19517.43137177 eV

CRYSTAL
PRIMVEC
        5.17600016     0.00000000     0.00000000
        0.00000000     5.50899976     0.00000000
        0.00000000     0.00000000     9.26300011
PRIMCOORD
23 1
Ti      1.86444301     3.32199401     3.45868002    -0.92820072    -1.42931663     1.72901738
Ti      3.42453300     2.21206399     5.75592598    -0.80731615    -0.00910942    -1.13794034
Ti      4.40435199     2.07933602     1.51318600    -0.06928303     0.19017891    -2.03529990
Ti      0.86375200     3.35238900     7.67241998    -0.52589466     1.93496642     2.33645821
Ti      1.95013099     0.38675999     1.32626101     0.18330661    -0.70736808    -1.36822540
Ti      3.22202401     5.11641602     7.91069003    -0.67277541     1.35647571     2.00459938
Ti      0.71331098     0.43405600     5.95890298     0.50968874    -0.01119356    -2.34983489
Ti      4.43560599     4.92436902     3.39250799     0.65880352    -0.17919542     2.29126489
O       1.81973901     1.89042900     4.66971999    -0.57051078    -0.10380859     0.12313275
O       3.51417600     3.59873101     4.45411502     0.52475746    -0.46705083     0.61199606
O       5.03569601     2.81508602     9.17282597     0.48160508    -0.42017960     0.49742817
O       3.51780600     0.74992597     0.37317601     0.46943168    -0.02361456    -1.76210903
O       1.81978002     4.72086200     9.10736199    -1.28970053    -0.46094523     0.28075506
O       4.24601999     0.60364598     4.92730098    -0.29891785     1.28045999    -1.15180759
O       0.87415002     4.59289202     4.64553600     0.71773066    -0.32994285    -0.35545926
O       0.18622499     3.43296401     2.49927600    -0.27180119    -0.57355008     0.09861238
O       0.03098402     2.19925001     6.54997799    -0.43189561    -0.02241077    -0.03451502
O       2.56459102     2.01107898     2.14046901     0.44972750     1.39497953     0.11914831
O       2.76269800     3.47297399     7.24154402    -0.22781217    -2.31163549    -1.36959862
O       0.16515701     0.46539102     2.06474199     0.00536821     1.57474959     0.03266279
O       4.97125301     5.01825401     7.30438699     1.22967322    -1.16121321     0.41625507
O       2.44661403     0.76459800     6.74645599    -0.09145135     0.52326905     0.87978143
O       2.70140298     4.78277299     2.50094698     0.95546677    -0.04454438     0.14367793
