# total energy = -19868.42714998 eV

CRYSTAL
PRIMVEC
       10.01508110     0.00000000     0.00000000
        0.00003114     3.55302496     0.00000000
        0.00000000     0.00000000    15.93314931
PRIMCOORD
24 1
Ti      3.63000342     2.10551918     5.91108489     0.30364585     0.01367853     1.90944564
Ti      6.38510841     1.44750544    10.02206490    -0.30364585    -0.01367853    -1.90944564
Ti      8.63737313     1.44750658     2.05542635     0.30343194    -0.01367879    -1.90954746
Ti      1.37773876     2.10551818    13.87772358    -0.30343194     0.01367879     1.90954746
Ti      3.62998826     0.32900677     2.05549024     0.30406314     0.01379500    -1.90879284
Ti      6.38512363     3.22401799    13.87765968    -0.30406314    -0.01379500     1.90879284
Ti      1.37772353     0.32900556    10.02200100    -0.30264415     0.01347593    -1.90992644
Ti      8.63738836     3.22401920     5.91114879     0.30264415    -0.01347593     1.90992644
O       3.16984721     1.25108038     8.13056433     0.18528533     0.54948172    -2.12010057
O       6.84526468     2.30194431     7.80258547    -0.18528533    -0.54948172     2.12010057
O       1.83777352     1.25109480     0.16404073    -0.18525525     0.54997151    -2.12105754
O       8.17733844     2.30192989    15.76910858     0.18525525    -0.54997151     2.12105754
O       6.84524946     0.52543176     0.16398899    -0.18550465    -0.54986481    -2.12073512
O       3.16986243     3.02759286    15.76916033     0.18550465     0.54986481     2.12073512
O       8.17732322     0.52541740     8.13061600     0.18551982    -0.54992292    -2.12047210
O       1.83778854     3.02760729     7.80253379    -0.18551982     0.54992292     2.12047210
O       0.36388975     2.16115119     4.30394120    -1.57055586     0.52654618     0.22704649
O       9.65122214     1.39187343    11.62920852     1.57055586    -0.52654618    -0.22704649
O       5.37144355     1.39184050     3.66268431    -1.56995885    -0.52661303    -0.22757434
O       4.64366835     2.16118419    12.27046521     1.56995885     0.52661303     0.22757434
O       0.36387453     0.38463871     3.66263345    -1.57015709     0.52655158    -0.22680738
O       9.65123737     3.16838598    12.27051606     1.57015709    -0.52655158     0.22680738
O       4.64365319     0.38467164    11.62925931     1.56983235     0.52636003    -0.22773658
O       5.37145870     3.16835298     4.30389035    -1.56983235    -0.52636003     0.22773658
