# total energy = -19518.95730019 eV

CRYSTAL
PRIMVEC
        7.60600008     0.00000000     0.00000000
        0.00000000     7.60600008     0.00000000
       -1.89786986    -1.89786986     4.85670466
PRIMCOORD
23 1
Ti      3.81096897     6.66791302     1.24714499     0.11384643    -0.87085945     0.08376066
Ti      3.70100298     2.78202302     1.26238001     0.81641966     0.57889232     0.33491151
Ti     -0.01755397     6.68094703     1.16741301     0.02831377     0.16301083    -0.93012905
Ti     -0.00442599     2.90338797     1.09596001    -0.69407418    -0.11055516     1.90731265
Ti      5.65624423     2.84432222     3.56321581    -0.34350388     1.88888401     1.00821297
Ti      5.75203023    -0.83177879     3.61991382    -0.83880781    -2.13771983    -0.10522218
Ti      1.88364521     2.77356021     3.73206484     1.11423065     0.02445249     0.38752401
Ti      1.87737822    -1.03258479     3.64894781     0.92160918     0.24404252    -0.29279425
O       3.96543200     4.68727698     0.77737498    -1.08478765    -0.11152267     1.06420622
O       3.94761699     0.90878498     0.75526998    -0.74519442     0.40679212     0.66796951
O      -0.11059598     4.81244200     0.74379302     0.51101620    -0.26050401     0.50163244
O      -0.13046198     0.94950602     0.72065099     0.39262277     0.37225165     0.27710537
O       5.77609124     4.80459023     3.96349982     0.47112243    -0.85670192     0.55749122
O       5.80263921     0.98964221     4.11396883     0.25289894     0.54815246    -1.84181480
O       1.93124624     4.69100820     4.06691481    -0.73898752     0.23581498    -0.18749185
O       2.00906625     0.89222523     4.13003582    -0.72199303     0.14594487    -0.39087853
O       3.82186622     2.82419522     3.23277679    -0.76871308    -0.28913660    -0.43111528
O       3.82857423    -1.02909978     3.26221481    -0.30423412     0.50814402    -0.81449339
O       0.02685024    -0.80376579     3.31895082     0.04372754    -0.38851054    -1.03051678
O       5.67383599     6.69850402     1.55400001     1.17537973    -0.01390839     0.95630623
O       5.75327698     2.86812498     1.72098602     0.73142101    -0.15157584    -0.91494823
O       1.91200398     6.65627699     1.56527000    -0.51325512    -0.07452011     0.63376302
O       1.76907902     2.79025300     1.79721199     0.18094248     0.14913227    -1.44079095
