# total energy = -19517.05332289 eV

CRYSTAL
PRIMVEC
        5.17600016     0.00000000     0.00000000
        0.00000000     5.50899976     0.00000000
        0.00000000     0.00000000     9.26300011
PRIMCOORD
23 1
Ti      1.84447101     3.14646798     3.44256800     0.40118763     0.20497048     2.13245987
Ti      3.30640302     2.26899499     5.90795602     0.57407073     0.73143310    -2.66301157
Ti      4.41480102     2.01896599     1.47433100    -0.03498964    -0.58795032    -0.37746791
Ti      0.89445799     3.39069699     7.72910698    -0.72860745     0.88798531     0.42414193
Ti      1.99536702     0.18637797     1.44393098    -0.54340748     1.56748751    -1.83260228
Ti      3.19243898     5.28837698     7.92697900     0.35592026    -0.50808797     0.77047686
Ti      0.70796502     0.59375598     5.91795699    -1.08345222    -0.73738778    -3.45377033
Ti      4.53623698     4.81966501     3.37469498    -0.30589788     1.31578696     3.56396039
O       1.89164002     1.83219997     4.73923202    -1.90808810    -0.93914283     0.40398936
O       3.49923701     3.50596899     4.42521501     0.58158427     0.42117668     0.19711318
O       0.02479402     2.63495800     9.14293402     0.18147470     0.04558902     0.63625005
O       3.45480602     0.78220298     0.28680502     0.37221977    -0.36405857    -0.48013467
O       1.60659801     4.81669600     8.91259200     0.55848932    -0.41816669     1.43284598
O       4.33891901     0.70739801     4.79981700    -1.03624803     0.72322870     0.08002742
O       0.92387701     4.72929899     4.43311298     1.21824235    -1.06233291     0.53888234
O       0.14901901     3.35700400     2.53431198     0.45760151    -0.67671229    -1.27547282
O       5.05177098     2.24715802     6.52076603     0.98769222     0.42097279     0.94386723
O       2.63340502     1.86518301     2.31279103     0.58436826    -0.17226835    -1.37603924
O       2.61264201     3.83251400     6.79096499    -0.48992209    -0.77944872     0.99759688
O       0.28428301     0.67324898     2.30712200    -0.00076567     0.18038815    -1.72270609
O       5.02536599     4.93567701     7.09902600    -0.47709357    -0.71644022     1.14668261
O       2.27823099     1.05182202     7.04673302    -0.08224114     1.00478517     0.33168246
O       2.83985702     4.48884598     2.36142601     0.41786201    -0.54180723    -0.41877167
