# total energy = -19519.04457557 eV

CRYSTAL
PRIMVEC
        7.60600008     0.00000000     0.00000000
        0.00000000     7.60600008     0.00000000
       -1.89786986    -1.89786986     4.85670466
PRIMCOORD
23 1
Ti      3.83470400     6.65702102     1.23572498    -0.89304936    -0.72101910    -0.58909446
Ti      3.87784698     2.83494599     1.24013001    -0.36438510     0.73591505     0.23015598
Ti     -0.06740998     6.72781800     1.26112601     1.37110735    -1.36674007     0.14357405
Ti      0.01063498     2.85077500     1.18309698     0.00305113     1.53035896    -1.44575704
Ti      5.65584624     2.91575421     3.58870479    -0.28574120    -1.07028559     2.29612736
Ti      5.65268821    -0.99250977     3.66739779     0.86955230     1.19145813     0.05039133
Ti      1.92731022     2.74540020     3.52426783     0.16223693     0.62407639     1.87748322
Ti      1.89787124    -0.97250279     3.65285182    -0.68889444    -0.51828754    -0.85307075
O       3.88682500     4.73808000     0.69330798    -0.32996805    -0.00009076     0.78024988
O       4.00391102     0.93951902     0.87554800    -0.35105650    -0.17519272    -0.37003279
O       0.15807398     4.75103601     0.76560899    -0.39275929     0.52018450     0.00318483
O      -0.02438100     0.95050098     0.78362001    -0.07078044    -0.42036215     0.15099375
O       5.47587522     4.76771721     4.01838979     0.72281476     0.06275422     0.53623205
O       5.63383225     1.00406520     4.05555380     0.11023943    -0.34026532    -0.48400058
O       1.78403320     4.79560220     3.98694279     0.00674683    -0.73640407     0.69749221
O       1.89275420     0.91923724     4.04630182    -0.13725145     0.69571378     0.17047372
O       3.77284324     2.87673221     3.22929279     0.19498534     0.00164191    -0.92219822
O       3.81458622    -0.86672677     3.19603183    -0.51446199    -0.05419193    -0.26667492
O       0.00913524    -0.74904378     3.32603581    -0.74709061    -0.61490449    -0.60423029
O       5.74578102     6.49780799     1.70923400    -0.75542638     0.08507192    -0.49765803
O       5.78632801     2.86385499     1.70447299     0.01492937     0.10885695    -0.81764068
O       1.82463501     6.54657501     1.64267599     1.34819418     0.65103801     0.22424784
O       1.82274702     2.76809698     1.64124901     0.72700720    -0.18932608    -0.31024845
