# total energy = -19076.12525582 eV

CRYSTAL
PRIMVEC
        7.60600008     0.00000000     0.00000000
        0.00000000     7.60600008     0.00000000
       -1.89786986    -1.89786986     4.85670466
PRIMCOORD
22 1
Ti      3.96895701     6.64046899     1.14278600     0.20588939    -0.34677458     0.11949926
Ti      3.64231098     2.76742101     1.17931802     0.91470577     0.25445986    -0.27561131
Ti      0.17575199     6.73236400     1.13021100    -1.00973815     0.55873821    -0.25096290
Ti     -0.09061398     2.93079697     1.16423599    -0.93431944    -0.60297251     0.15417060
Ti      5.64291722     2.81954624     3.61032782    -0.28907541     0.11375953    -0.53506116
Ti     -1.40107477    -0.91405776     3.67540779    -0.40568038    -0.34854864     1.14936324
Ti      1.80691223     2.87598924     3.69558182     0.21806691    -1.97396056    -0.39431507
Ti      1.46026721    -1.10216879     3.73112380     0.87260291     1.69388607    -0.50849112
O       3.78610902     4.68874301     0.81671100    -0.45418426     0.94664403    -0.27804691
O       4.03508200     0.86833198     0.67457801    -0.95606738     0.20455062     1.55212130
O      -0.17038502     4.84225802     0.71061800     0.03757874    -0.59543532    -0.04224144
O      -0.24832002     0.96610001     0.76751498     0.90381046     0.63386998     0.37800990
O      -1.50280677     4.85754822     4.10216580    -0.37664670    -0.56693489    -1.14462958
O       5.71877721     0.91835621     3.96003784     0.25533892     1.26069951     0.77325879
O       2.22534322     4.68846524     4.07505679    -0.83810332     0.53995115     0.00613800
O       1.70560421     0.85336520     3.99129882    -0.52515290    -0.23999509     0.46193356
O       3.68464823     2.62346824     3.18778683     0.17267767     0.33119395     0.04773615
O      -0.07925980     2.96471925     3.25425583     0.07657956    -0.41689682    -0.57693005
O       5.75365698     6.74425102     1.88621500    -0.24606006    -0.74446525    -0.70946147
O       5.51276401     3.02255102     1.58377501     1.48685280    -0.53725972     0.75458178
O       1.94691502     6.63750300     1.88535800     0.62252113     0.00401889    -0.40526026
O       1.74777900     2.93328702     1.63728103     0.26840347    -0.16852842    -0.27580131
