# total energy = -19516.76697288 eV

CRYSTAL
PRIMVEC
        5.17600016     0.00000000     0.00000000
        0.00000000     5.50899976     0.00000000
        0.00000000     0.00000000     9.26300011
PRIMCOORD
23 1
Ti      1.87510201     3.35434103     3.38477798    -0.32271033    -1.13187562     2.50183908
Ti      3.29170602     2.24015002     5.87072803     0.52375988     0.76110338    -2.92224469
Ti      4.31305097     2.04681199     1.51441501     1.84848013    -0.18559566    -1.19984507
Ti      0.82571199     3.30262602     7.73316598     1.05676724     0.71319446     2.54904147
Ti      1.94462998     0.20634500     1.45679698    -0.80738300     1.35343126    -3.27421650
Ti      3.35836600     5.28443800     7.89590301    -1.06782633    -1.08726105     1.85212647
Ti      0.71329902     0.62489499     5.80149799    -0.08321430    -1.16520202    -2.31148019
Ti      4.50651998     4.96067698     3.37653297     0.15037591     0.39844915     3.25146737
O       1.67777801     1.92732398     4.84757799    -0.08323435     0.84712173    -0.83675658
O       3.52039103     3.56783298     4.45187999    -0.31794094    -0.24815346     0.75505872
O       0.42816001     2.46629101     0.19295401    -0.78748677     0.68610659    -1.27662004
O       3.45780698     0.71698199     0.29610399     0.68635367     1.18080193    -0.66457179
O       1.70814098     4.85152100     8.96864600     0.09416772    -0.80156433     0.40882998
O       4.21249698     0.76879199     4.82663797    -0.10627967     0.24109192    -0.67596435
O       0.92730000     4.74331701     4.52370802     0.84131077    -0.45178850    -0.65392485
O       0.06874700     3.46217301     2.59991101     1.09710375    -2.31985402    -1.07188971
O       5.08461702     2.00820798     6.75843699    -1.61546971     1.15767948     1.28402225
O       2.55635502     1.81062499     2.40854999     0.24142462     0.32366910    -0.89406238
O       2.55593802     3.61042302     6.96650202     0.20159796    -0.26181090     1.30392928
O       0.13238300     0.51601402     1.99988598     0.04273946     0.78462873     0.43936236
O       5.10698201     4.78054103     7.05211100    -1.26843159    -0.27352485     1.12449938
O       2.41499902     0.77989402     6.79761500    -0.16839678     0.46155561     0.64396928
O       2.95308798     4.53178099     2.30895603    -0.15570709    -0.98220214    -0.33256923
