# total energy = -19951.46639818 eV

CRYSTAL
PRIMVEC
        6.27948167     0.00000000     0.00000000
        0.00002653     4.93980641     0.00000000
        0.00000000     0.00000000     9.99790217
PRIMCOORD
24 1
Ti      2.27602582     2.92732474     3.70915040     0.24366714     0.18806058    -0.32506881
Ti      4.00348244     2.01248184     6.28875183    -0.24366714    -0.18806058     0.32506881
Ti      5.41565820     2.01248355     1.28976077     0.24514655    -0.18819351     0.32591650
Ti      0.86385005     2.92732325     8.70814157    -0.24514655     0.18819351    -0.32591650
Ti      2.27601267     0.45742165     1.28980086     0.24346376     0.18660585     0.32521639
Ti      4.00349559     4.48238510     8.70810149    -0.24346376    -0.18660585    -0.32521639
Ti      0.86383690     0.45741976     6.28871175    -0.24464056     0.18661974     0.32507061
Ti      5.41567136     4.48238698     3.70919048     0.24464056    -0.18661974    -0.32507061
O       1.98750497     1.73938985     5.10185296     0.90668984     0.33092064     0.00312338
O       4.29200334     3.20041674     4.89604928    -0.90668984    -0.33092064    -0.00312338
O       1.15229132     1.73940977     0.10293403    -0.90570896     0.33013260     0.00281922
O       5.12721705     3.20039686     9.89496793     0.90570896    -0.33013260    -0.00281922
O       4.29199019     0.73051347     0.10290159    -0.90641936    -0.33059385     0.00296294
O       1.98751813     4.20929311     9.89500036     0.90641936     0.33059385    -0.00296294
O       5.12720389     0.73049360     5.10188539     0.90591928    -0.33049898     0.00254436
O       1.15230436     4.20931303     4.89601684    -0.90591928     0.33049898    -0.00254436
O       0.22816424     3.00467028     2.70068280    -0.57457595     0.01888322     0.36886371
O       6.05134407     1.93513630     7.29721943     0.57457595    -0.01888322    -0.36886371
O       3.36791184     1.93509023     2.29830010    -0.57350508    -0.01862585    -0.36851507
O       2.91159647     3.00471641     7.69960196     0.57350508     0.01862585     0.36851507
O       0.22815109     0.53476707     2.29826817    -0.57402188     0.01876109    -0.36784375
O       6.05135722     4.40503957     7.69963389     0.57402188    -0.01876109     0.36784375
O       2.91158331     0.53481314     7.29725130     0.57350123     0.01841656    -0.36863668
O       3.36792500     4.40499344     2.70065087    -0.57350123    -0.01841656     0.36863668
