# total energy = -4986.64577706 eV

CRYSTAL
PRIMVEC
        4.03466279     0.00000000     0.00000000
        1.72810498     3.64584106     0.00000000
       -2.88142208    -1.82294470     5.29141937
PRIMCOORD
6 1
Ti      1.29597681     2.73452112     1.32285479     0.00057387    -0.00057387     0.00000000
Ti      1.58536915    -0.91162454     3.96856426    -0.00057387     0.00057387     0.00000000
O       0.43206815     0.91145548     0.86192891    -0.00045123    -0.00066026    -2.07453289
O       2.44927767     0.91144097     4.42949019     0.00045123     0.00066026     2.07453289
O      -0.43203180    -0.91143252     3.50763843    -0.00066026    -0.00045123    -2.07453289
O       3.31337755     2.73432893     1.78378066     0.00066026     0.00045123     2.07453289
