# total energy = -19515.10565782 eV

CRYSTAL
PRIMVEC
        5.17600016     0.00000000     0.00000000
        0.00000000     5.50899976     0.00000000
        0.00000000     0.00000000     9.26300011
PRIMCOORD
23 1
Ti      2.01016498     3.14716702     3.36139602     0.28778780     0.46041147     2.92763681
Ti      3.24591499     2.26584099     5.89719599     2.88250493     0.08858971    -1.41367712
Ti      4.37688801     2.16472998     1.61740301     0.76046883    -0.86183076    -2.61275677
Ti      0.91671201     3.45220199     7.66954797    -3.19295033    -1.42385586     1.78777842
Ti      1.93955199     0.25772498     1.44970298     0.37085760    -0.39174448    -1.68583106
Ti      3.10635603     5.30559599     7.78023900     0.88709237    -1.04595266     2.46042811
Ti      0.66804299     0.60378500     5.86911800    -1.10894754    -0.76696756    -2.99248108
Ti      4.53940501     4.83673700     3.47201502     1.06111781     0.17874547     3.14044375
O       1.88099599     1.88420402     4.81822099    -2.31902304    -1.10160730    -1.76954158
O       3.63441899     3.37404801     4.50179199     0.03306080     1.86488506    -1.37815140
O       0.08894602     2.64920499     9.14166500    -0.77784384    -0.63318581     1.37984447
O       3.34295699     0.71787101     0.21080300     0.00853581     0.87262734     0.13310683
O       1.81488799     4.47186903     8.97437599     0.68331668     1.15823484     0.96077867
O       4.31741002     0.64157900     4.78964801    -1.45699534     0.16834921     0.22594246
O       1.00478800     4.63525298     4.44630098     0.83106981     0.72450346     0.96133917
O       0.25776600     3.24388300     2.73043301    -0.50027155    -0.46065290    -2.20446775
O       5.15542501     2.36846698     6.28688101    -0.43012618    -0.57473176     1.74160088
O       2.72874302     1.62142301     2.54306002     0.09377588     0.32096867    -1.69979961
O       2.46453202     3.71142899     6.73473699     1.34256192     1.33564102     0.43375169
O       0.10897299     0.65824199     2.30263998     1.19241895     0.03377479    -1.88182350
O       4.98607601     4.85637599     7.17210199    -0.95621522     1.32166810     0.25322984
O       2.11217199     1.09563398     6.95674198     1.20247274    -0.38333594     2.57204411
O       2.98294200     4.57185098     2.40534900    -0.89466864    -0.88453438    -1.33939535
