# total energy = -19949.55517802 eV

CRYSTAL
PRIMVEC
        6.36876340     0.00000000     0.00000000
        0.00002691     5.01004063     0.00000000
        0.00000000     0.00000000    10.14005244
PRIMCOORD
24 1
Ti      2.30838638     2.96894548     3.76188713     0.28838404     0.04540544    -0.07686804
Ti      4.06040399     2.04109532     6.37816536    -0.28838404    -0.04540544     0.07686804
Ti      5.49265808     2.04109706     1.30809860     0.28968681    -0.04550777     0.07757612
Ti      0.87613228     2.96894396     8.83195401    -0.28968681     0.04550777    -0.07757612
Ti      2.30837304     0.46392528     1.30813926     0.28815187     0.04174907     0.07692178
Ti      4.06041733     4.54611569     8.83191336    -0.28815187    -0.04174907    -0.07692178
Ti      0.87611894     0.46392336     6.37812471    -0.28984571     0.04154699     0.07721488
Ti      5.49267142     4.54611760     3.76192779     0.28984571    -0.04154699    -0.07721488
O       2.01576334     1.76412051     5.17439115     0.90482450     0.51706755    -0.19312206
O       4.35302708     3.24592029     4.96566135    -0.90482450    -0.51706755     0.19312206
O       1.16867461     1.76414072     0.10439754    -0.90499420     0.51731592    -0.19395792
O       5.20011587     3.24590014    10.03565467     0.90499420    -0.51731592     0.19395792
O       4.35301374     0.74089992     0.10436464    -0.90493995    -0.51731206    -0.19309480
O       2.01577668     4.26914088    10.03568757     0.90493995     0.51731206     0.19309480
O       5.20010253     0.74087977     5.17442405     0.90501914    -0.51736734    -0.19385354
O       1.16868784     4.26916109     4.96562845    -0.90501914     0.51736734     0.19385354
O       0.23140828     3.04739071     2.73908114    -0.73165216     0.06807101     0.32137773
O       6.13738214     1.96265009     7.40097136     0.73165216    -0.06807101    -0.32137773
O       3.41579685     1.96260336     2.33097736    -0.73162902    -0.06789797    -0.32218943
O       2.95299357     3.04743749     7.80907497     0.73162902     0.06789797     0.32218943
O       0.23139494     0.54237039     2.33094497    -0.73206893     0.06789180    -0.32173306
O       6.13739548     4.46767046     7.80910736     0.73206893    -0.06789180     0.32173306
O       2.95298023     0.54241712     7.40100369     0.73104409     0.06771671    -0.32189195
O       3.41581019     4.46762368     2.73904875    -0.73104409    -0.06771671     0.32189195
