# total energy = -19915.11878495 eV

CRYSTAL
PRIMVEC
        7.96548316     0.00000000     0.00000000
        0.00002666     4.08184728     0.00000000
        0.00000000     0.00000000    12.03457930
PRIMCOORD
24 1
Ti      2.88712046     2.41889900     4.46474309     0.20870269    -0.17933965     2.56027642
Ti      5.07838955     1.66294847     7.56983633    -0.20870269     0.17933965    -2.56027642
Ti      6.86972570     1.66294992     1.55249854     0.20810234     0.17950806    -2.56091766
Ti      1.09578437     2.41889773    10.48208106    -0.20810234    -0.17950806     2.56091766
Ti      2.88710719     0.37797542     1.55254680     0.20870269    -0.17933965    -2.56027642
Ti      5.07840288     3.70387217    10.48203280    -0.20870269     0.17933965     2.56027642
Ti      1.09577104     0.37797385     7.56978807    -0.20810234    -0.17950806    -2.56091766
Ti      6.86973897     3.70387374     4.46479135     0.20810234     0.17950806     2.56091766
O       2.52113520     1.43728788     6.14115371     1.64764656     0.94618148    -1.73336460
O       5.44437487     2.64455959     5.89342571    -1.64764656    -0.94618148     1.73336460
O       1.46167194     1.43730430     0.12390273    -1.64615172     0.94608095    -1.73326664
O       6.50383819     2.64454316    11.91067633     1.64615172    -0.94608095     1.73326664
O       5.44436154     0.60363595     0.12386370    -1.64764656    -0.94618148    -1.73336460
O       2.52114847     3.47821152    11.91071542     1.64764656     0.94618148     1.73336460
O       6.50382492     0.60361952     6.14119274     1.64615172    -0.94608095    -1.73326664
O       1.46168503     3.47822801     5.89338668    -1.64615172     0.94608095     1.73326664
O       0.28942076     2.48281094     3.25084010    -1.93814225     0.61116302     0.27897945
O       7.67608925     1.59903658     8.78373932     1.93814225    -0.61116302    -0.27897945
O       4.27217231     1.59899848     2.76648786    -1.93902748    -0.61091619    -0.27931190
O       3.69333770     2.48284905     9.26809138     1.93902748     0.61091619     0.27931190
O       0.28940749     0.44188724     2.76644943    -1.93814225     0.61116302    -0.27897945
O       7.67610258     3.63996022     9.26812981     1.93814225    -0.61116302     0.27897945
O       3.69332443     0.44192535     8.78377769     1.93902748     0.61091619    -0.27931190
O       4.27218564     3.63992212     3.25080167    -1.93902748    -0.61091619     0.27931190
