# total energy = -19073.33223160 eV

CRYSTAL
PRIMVEC
        5.93400000     0.00000000     0.00000000
        0.00000000     9.29699974     0.00000000
        0.00000000     0.00000000     4.64899994
PRIMCOORD
22 1
Ti      4.51181598     6.87267498     2.43908500    -2.61666254     0.76530534    -0.75895317
Ti      4.37318699     2.39285099     2.20125099     0.45795452    -0.50646637    -0.41624530
Ti      1.42782801     7.22651099     2.55048999     3.28688382     0.11466276     0.20082071
Ti      1.61377402     2.35657002     2.09301800    -0.77563938     1.14758455     0.58385764
Ti      3.03603202     4.61510699     4.44086099    -2.16260504     0.12630652     0.32628057
Ti      2.98077200     0.19106998     0.15737700     1.22536945    -0.09841287     0.39910941
Ti      5.78788803     4.56599500     4.45338201     1.69177314    -1.51613742     0.49877312
Ti      0.06091402     9.07163199     0.15279998    -2.59655779     0.89647124     1.57209827
O       4.41360000     5.47375698     0.77992800     0.18312972     0.59593745     1.90727023
O       4.40510501     0.77289602     1.27183201     1.20207371    -0.55288020    -1.01234139
O       1.45177699     0.63740802     1.37470100    -0.55177874     0.72372287    -1.36074708
O       4.51084902     8.31897001     3.99380400    -0.67972434     0.74795733    -0.73944157
O       4.35889497     4.00451402     3.41460802     1.06106124    -1.84863234    -1.51905176
O       1.50179001     8.49407598     3.93042698     0.89909788    -0.29108884    -1.00721950
O       1.52014097     3.89829597     3.42166200    -0.79473805    -0.10905081     0.47850819
O       2.89813102     6.14015301     3.27611402    -0.33101706    -0.29821028     0.15573203
O       2.95713302     1.53917098     3.24454701     0.14629531    -0.37603066     1.31178838
O       5.92132398     6.20089902     3.42429699     0.97106874    -0.96211487     0.27251750
O       2.93170700     7.97037497     1.64007799     0.13004953    -1.03698183    -0.51645074
O       3.02781601     2.89911900     0.95646301    -0.38634105     1.54838960     0.15143366
O       0.01862900     7.77083599     1.51419699    -0.64551914    -0.07873338    -0.69553791
O       5.89118401     2.97242301     1.11008898     0.28582682     1.00840297     0.16779874
