# total energy = -19961.45185399 eV

CRYSTAL
PRIMVEC
        7.60600008     0.00000000     0.00000000
        0.00000000     7.60600008     0.00000000
       -1.89786986    -1.89786986     4.85670466
PRIMCOORD
24 1
Ti      3.78109602     6.66877299     1.10299901     0.82661794     1.28300564     0.90638413
Ti      3.83431897     2.92148499     1.15060602    -0.24971052    -1.80319348     1.21003307
Ti     -0.00466703     6.71702898     1.26243901    -1.10630856     0.04224787    -0.24031647
Ti     -0.02418298     2.88123900     1.31873601     0.37231362    -0.53718798    -1.02300068
Ti      5.70724522     2.85884924     3.70763082    -0.76580465    -1.77078600    -0.14092170
Ti      5.68584122    -1.00748078     3.66608781    -0.52935537     1.74633480    -0.68810588
Ti      1.92658223     2.85271322     3.67726679     0.69563484    -0.27200713    -1.58782186
Ti      1.91079221    -0.94315976     3.57085379     0.36611854    -0.18491895     0.51855082
O       3.82173397     4.75461499     0.76845400    -0.18117054     0.19713787     0.32348398
O       3.84347199     0.91129403     0.63945202    -0.38661127     0.21437018     0.77773585
O      -0.10717898     4.66818098     0.82239299     0.31030476     1.71718542    -0.12675595
O      -0.16281800     1.02892103     0.74973298     0.42590571    -1.35394831     0.75661295
O       5.73124225     4.75826822     4.16410483    -0.35525048    -0.67548073    -0.46493070
O       5.78058025     0.93662124     4.07648482     0.18324568     0.03003461    -0.01664610
O       2.01865325     4.75960423     3.98021579    -0.17051588    -1.01358144    -0.20022756
O       1.92281925     0.91228925     4.09479282    -0.41237553     0.44662907    -0.60740098
O       3.84183821     2.57891321     3.18808279    -0.06611517     1.08520545     0.27259231
O       3.73637620    -0.95591679     3.06899283     0.75339933    -0.17774531     0.92185113
O       0.02354124     2.78225020     3.30659781    -0.56158236     0.41392411    -0.20672140
O      -0.07659179    -1.17077080     3.17397281     1.11737537     0.49756495     0.27389484
O       5.67387102     6.82276298     1.66031902     0.06176049    -0.69542813    -0.36529707
O       5.66707998     2.91673599     1.59379001     0.22395474     0.01811214     0.77380001
O       1.89543200     6.65676601     1.57709701    -0.86560951     0.27880179    -0.57024570
O       1.89114000     2.74446700     1.71502801     0.31377883     0.51372357    -0.49654782
