# total energy = -19073.00920498 eV

CRYSTAL
PRIMVEC
        5.93400000     0.00000000     0.00000000
        0.00000000     9.29699974     0.00000000
        0.00000000     0.00000000     4.64899994
PRIMCOORD
22 1
Ti      4.50773999     7.06682498     2.36724897    -0.74106728    -0.27055523     0.22635718
Ti      4.36565299     2.10870699     2.33967402     1.13338306     0.23938342     0.59546334
Ti      1.50744802     7.10121002     2.41391701     0.18458933     0.46098637    -0.03759880
Ti      1.56980802     2.43945198     2.10176302    -2.45980127     0.60828981     0.83513113
Ti      3.04421199     4.77543701     0.06001198    -1.27298167    -0.74309845    -1.64594089
Ti      3.07686000     0.08601998     4.64169402    -0.72358532    -1.49642682    -0.32474845
Ti      5.79735998     4.47732902     4.48945501     1.26420367    -0.77341897    -0.16687854
Ti      0.11317202     9.24271002     0.06037097     0.14413635    -0.24363577    -0.27324280
O       4.41453299     5.42490302     0.95155499     0.24695635     1.85360794     1.10482941
O       4.47745899     0.99035401     0.76081999     0.94045589     0.04161409     0.35374947
O       1.50706702     0.87859802     0.99192699    -0.64892920     0.38358894    -1.54886834
O       4.49534899     8.21370602     3.85277398    -0.26931750     1.54908097     0.05425235
O       4.24316100     3.76924398     3.71916498     0.03005646    -0.94840112    -0.65672067
O       1.47796698     8.10820602     3.89711601    -0.46079457     2.51174863     1.21762143
O       1.36333300     3.66402503     3.72822200     0.45159258     0.44782412     0.10094206
O       2.91729999     6.23929702     3.20220400     0.54103281    -2.64776904     0.91208864
O       2.75980202     1.22549302     3.14775600     0.50491908     0.22057297     0.91680790
O       5.91600898     6.12964398     3.29607099    -0.28087101    -0.91736738    -0.72595690
O       2.88541600     8.16826202     1.64709801     0.58599602    -1.13796811    -1.24551997
O       3.13648801     2.95186500     1.41109199    -0.86912781     3.39632929    -2.10694629
O       5.82442099     8.10689101     1.42645401     0.44924362    -1.71284591     1.57979538
O       5.75519101     3.20660998     1.36276303     1.24991038    -0.82154001     0.83538361
