# total energy = -4984.00927088 eV

CRYSTAL
PRIMVEC
        2.65529734     0.00000000     0.00000000
        0.00000000     4.16045285     0.00000000
        0.00000000    -0.00005399     4.16045285
PRIMCOORD
6 1
Ti      1.32764862     2.08019938     2.08022638     0.00000000     0.00000000     0.00000000
Ti      0.00000000     0.00000000     0.00000000     0.00000000     0.00000000     0.00000000
O       1.32764862     0.81080045     0.81081097     0.00000000     1.85632612     1.85632612
O       1.32764862     3.34959832     3.34964179     0.00000000    -1.85632612    -1.85632612
O       0.00000000     1.26937704     2.89103819     0.00000000    -1.85741652     1.85741652
O       0.00000000     2.89102172     1.26941456    -0.00000000     1.85741652    -1.85741652
