# total energy = -19961.70996660 eV

CRYSTAL
PRIMVEC
        7.60600008     0.00000000     0.00000000
        0.00000000     7.60600008     0.00000000
       -1.89786986    -1.89786986     4.85670466
PRIMCOORD
24 1
Ti      3.82497402     6.72125102     1.13856602     0.03684521     0.37562674    -0.09354808
Ti      3.77741400     2.90850099     1.23197602     1.08231682    -0.62058611    -0.76862720
Ti     -0.06439198     6.63680798     1.20992002    -0.04154364    -0.16991142     0.31191530
Ti      0.00183598     2.77158701     1.24538701    -0.85792885     0.30557572     0.43953873
Ti      5.64051121     2.79210925     3.70111781     0.91952762    -0.30505996    -0.58129270
Ti      5.66747623    -0.96982076     3.66473682     0.16516336     0.25556544    -0.14583380
Ti      1.92789623     2.88261221     3.60524682    -0.83132666    -0.25889681     0.68434667
Ti      1.91420123    -0.89222179     3.52171281     0.05006865     0.14774156     0.98203579
O       3.93369100     4.82231100     0.79270398    -0.38720108    -0.77578799     0.02985618
O       3.89118801     1.04796998     0.72920800    -0.48393347    -0.67684213    -0.32124943
O      -0.10325000     4.67811602     0.84049799     0.09326860     0.90210376    -0.23651535
O      -0.08780702     0.90878901     0.92461400     0.33906256    -0.44704379    -0.95986541
O       5.60761321     4.71058924     4.10138981     0.02973456     0.02837650     0.07954251
O       5.80273520     0.87550820     4.11303383    -0.28918648     0.19648480     0.03442554
O       2.10136021     4.77602222     4.03557582    -0.46765093     0.29677818    -0.53700029
O       1.93730225     0.99271324     4.07350884    -0.28337424    -0.30053816    -0.22011377
O       3.79956224     2.62111022     3.20808580     0.37053056     0.66574087    -0.08111551
O       3.83409524    -0.94571579     3.10578584    -1.10845749     0.10552300     0.99858161
O       0.00287920     2.77867021     3.21897182     0.27705447     0.42201923     0.84722740
O      -0.02055377    -0.99168378     3.28979384     0.61074547    -0.36386343    -0.72727151
O       5.64235798     6.85437302     1.71767702     1.63025202    -0.72271937    -0.49165013
O       5.75113698     2.79173300     1.68948500    -1.28152854     0.38680359     0.16404390
O       1.90728001     6.67094198     1.50095401    -0.58505037     0.08295487     0.80497182
O       1.88189400     2.80861497     1.65097402     1.01261239     0.46995489    -0.21240277
