# total energy = -19074.21199413 eV

CRYSTAL
PRIMVEC
        7.60600008     0.00000000     0.00000000
        0.00000000     7.60600008     0.00000000
       -1.89786986    -1.89786986     4.85670466
PRIMCOORD
22 1
Ti      3.73642198     6.53656398     1.36488698     1.25832304     0.82174930    -1.14191913
Ti      3.73545099     2.82093300     1.18605799    -0.63950661    -1.57252173     0.17661506
Ti     -0.06072902     6.64494302     1.09210299     0.40868420     0.75452033     1.66828353
Ti     -0.14500499     2.86896801     1.07560600     0.35794834     0.09191697    -0.76208863
Ti      5.63987921     3.06715622     3.52998480    -0.29322105    -0.84798253    -0.33447596
Ti     -1.31341878    -0.73899476     3.79970882    -1.94080797    -0.09252787    -0.95281313
Ti      1.77423220     2.75045321     3.65942679     1.26780295    -0.89108812    -0.21859759
Ti      1.97381024    -1.16586977     3.80515480    -1.28290176     1.04329826    -1.15879765
O       3.70311900     4.56874498     0.73109801    -0.68030052     1.80319116     0.62888692
O       3.87345401     0.84389801     0.77539602    -0.10338127    -0.48876843     2.86583724
O      -0.03265701     4.89302300     0.62202500     0.15670905    -1.17892091     0.67002125
O       7.19471098     0.87257598     0.57624000     0.61641090     2.89821129     1.27238929
O       5.82054123     4.91591520     4.08018780     0.86937309    -0.48909265    -2.34934227
O       5.42932022     1.13702125     3.91096480     1.63110228    -1.59491270     0.60718706
O       1.97445324     4.58171723     4.30533583    -0.22091184     0.18014595    -1.54854258
O       2.11394722     0.78971624     4.07821984    -0.48426412     0.50232792    -0.73721525
O       3.68037724     2.89400524     3.16089182     0.32417098     0.44373246    -0.67667552
O       0.02222121     2.81995821     3.06849382    -0.85632577     0.07121598     0.64854687
O       5.75315701     6.76516701     1.92587303     0.12062746    -0.95406166     0.89594674
O       5.70813101     3.30810702     1.57248798    -0.89535847    -1.14985947     0.70877241
O       1.93654701     6.51668602     1.85834498    -0.34926547     0.30032424    -0.39688900
O       1.74604299     2.60131402     1.31677900     0.73509281     0.34910220     0.13487009
