# total energy = -19074.11252015 eV

CRYSTAL
PRIMVEC
        5.17600016     0.00000000     0.00000000
        0.00000000     5.50899976     0.00000000
        0.00000000     0.00000000     9.26300011
PRIMCOORD
22 1
Ti      1.77026502     3.37228903     3.38392500     1.71083993     0.97168015    -1.31044369
Ti      3.76263901     2.33312598     5.86503000    -1.15690069     0.36149595    -0.10136295
Ti      4.26950000     2.44615100     1.22849499    -0.16549349    -1.32533295    -0.72339428
Ti      0.82023098     3.13668201     8.10964998    -0.00724357     0.63356453     0.07960627
Ti      1.74256402     0.59530001     1.19286400     1.83454783    -0.61857860    -0.68411938
Ti      3.29411102     4.90834098     7.86031902    -0.33993930     0.75746064     1.22070136
Ti      0.81352202     0.10493902     6.09384498    -0.33967705     1.12487065    -0.65104496
Ti      4.45646002     5.04613498     3.41847001    -0.65455451     0.75461417     0.35289947
O       3.43762098     3.60102198     4.36101698     0.44606651    -1.45651763     1.50233444
O       0.78395800     1.99466300     0.37021399    -0.12236553     0.47307853    -1.65552108
O       4.22346899     3.68192497     8.97740600     0.86682847    -0.73476371     0.62560465
O       3.34554203     0.80661298     0.23431101     0.18396558     0.50382405    -1.04259377
O       1.66098198     4.63864098     8.84356199    -0.98523476     0.60890790     1.23618274
O       4.19933502     0.71773898     5.01226198     1.02093994    -0.61500785    -1.23011905
O       1.05594500     4.85581400     4.34712898    -0.93424796     0.02521096     1.60691179
O       0.10266298     3.48722902     2.50646498    -0.67408899     0.00048568    -0.43668069
O       0.10591599     1.78676302     6.91721001    -0.14120787    -0.37034261    -0.12715113
O       2.69517001     2.07271400     2.17580498    -1.33795682     0.32034260     1.14056441
O       2.46453599     3.49876001     6.87503998    -0.84978848    -0.94664737    -0.22632453
O       5.04202502     0.85149297     2.26059298     0.67250236    -0.99880556     0.45861247
O       2.46309102     0.70061798     6.74650701     0.14181927     0.84284290    -0.55944834
O       2.52316401     4.79604899     2.32357000     0.83118885    -0.31238272     0.52478626
