# total energy = -19939.44073161 eV

CRYSTAL
PRIMVEC
        5.46842604     0.00000000     0.00000000
        2.73887458     5.13533424     0.00000000
        0.00000000     0.00000000    10.12804862
PRIMCOORD
24 1
Ti      3.60509599     3.04319432     3.75743382     2.60846431    -4.15939185     0.98444748
Ti      4.60220477     2.09214005     6.37061491    -2.60846431     4.15939185    -0.98444748
Ti      5.83198541     2.09214188     1.30655008    -5.66332938     0.33394272     1.34967642
Ti      2.37531553     3.04319272     8.82149870     5.66332938    -0.33394272    -1.34967642
Ti      2.23565891     0.47552737     1.30659071     2.60846431    -4.15939185    -0.98444748
Ti      5.97164196     4.65980720     8.82145813    -2.60846431     4.15939185     0.98444748
Ti      1.00587818     0.47552540     6.37057428     5.66332938    -0.33394272     1.34967642
Ti      7.20142267     4.65980912     3.75747439    -5.66332938     0.33394272    -1.34967642
O       2.69519572     1.80823852     5.16826571     0.80714080     1.63132442    -1.33471003
O       5.51210511     3.32709589     4.95978302    -0.80714080    -1.63132442     1.33471003
O       1.96786902     1.80825919     0.10427394     1.45492740    -0.89874898     0.28013953
O       6.23943188     3.32707525    10.02377446    -1.45492740     0.89874898    -0.28013953
O       4.14266792     0.75942874     0.10424107    -0.80714080    -1.63132442    -1.33471003
O       4.06463289     4.37590561    10.02380733     0.80714080     1.63132442     1.33471003
O       4.86999469     0.75940811     5.16829852    -1.45492740     0.89874898     0.28013953
O       3.33730608     4.37592631     4.95975015     1.45492740    -0.89874898    -0.28013953
O       1.86461932     3.12360136     2.73583860     0.60123341     0.65926838     0.74639410
O       6.34268151     2.01173305     7.39221007    -0.60123341    -0.65926838    -0.74639410
O       4.00581485     2.01168509     2.32821792     1.68346641     0.22268538    -0.62344493
O       4.20148598     3.12364932     7.79983059    -1.68346641    -0.22268538     0.62344493
O       0.49518214     0.55593421     2.32818560     0.60123341     0.65926838    -0.74639410
O       7.71211868     4.57940014     7.79986291    -0.60123341    -0.65926838     0.74639410
O       2.83204879     0.55598217     7.39224234    -1.68346641    -0.22268538    -0.62344493
O       5.37525203     4.57935218     2.73580628     1.68346641     0.22268538     0.62344493
