# total energy = -39032.65745335 eV

CRYSTAL
PRIMVEC
        5.93200024     0.00000000     0.00000000
        0.00000000     9.29399984     0.00000000
        0.00000000     0.00000000     9.29399984
PRIMCOORD
46 1
Ti      4.49578397     7.00444499     6.74186401    -0.47039404     2.40799713     2.66624268
Ti      4.25279801     6.79120100     2.41521799     3.40781724     0.70981088     0.19775853
Ti      4.53032999     2.15705501     7.14784302    -1.60985390     0.04123871    -0.16795763
Ti      4.40056700     2.63019900     1.99613999    -0.67640453    -1.56271220     1.53417217
Ti      1.45649201     6.79644800     7.15198299    -0.65509393     1.21995856    -0.56991428
Ti      1.48497000     7.19020901     2.16324400    -2.92316437    -0.39114927     0.72422912
Ti      1.43708798     2.39627101     6.81733198     2.15348019    -0.12471269     0.00550036
Ti      1.40818802     2.02510498     2.67090898     1.09826949     1.22632230    -0.27464663
Ti      2.88757499     4.73410001     4.85833998    -0.19954031    -1.35887352    -1.60582036
Ti      2.97036298     4.78475201     9.08965201     0.10226849    -0.78836686     0.88018253
Ti      3.09050801     9.17179799     4.62879199    -0.34324651     0.64977560     0.42983050
Ti      2.97381401     9.22195601     9.17485198     1.31688276    -0.47116229    -0.57292684
Ti      5.86583202     4.58195901     4.76980503     0.11518341    -0.13404657    -2.47561434
Ti      0.05320999     4.76534602     0.10940602    -0.10564230     0.14386562    -0.36870867
Ti      0.05355401     9.24837899     4.78763899     0.02464918    -0.22491170    -0.22353951
Ti      0.03985800     0.05769598     9.28566202    -0.78364477    -2.02231068     1.10082697
O       4.40029002     5.74965201     5.51246100    -0.16731769    -2.57541431    -1.98440078
O       4.42345698     5.77926799     0.79717700    -0.01723000    -1.99338371     0.43134180
O       4.56386702     0.80734102     5.65289602     0.36974817     0.62951633    -0.09990256
O       4.50047899     0.96335501     0.62907798    -0.88651413     1.81084585     1.47674810
O       1.30965400     5.54000299     5.78578100     0.68748444    -1.22684527    -1.46138987
O       1.59108697     5.53733001     1.02294201    -0.12493175    -0.09588701    -1.47229881
O       1.61453699     0.94688299     5.52960899    -1.31011073     0.17717273    -1.03049004
O       1.54632699     0.78897698     0.83990098    -0.52759571     1.19996514     1.48603082
O       4.36977798     8.47065502     8.12582899     0.35009285    -0.00857000     0.81684003
O       4.51490601     8.47465899     3.72246498     0.63637475    -0.14904202    -0.11917556
O       4.58543602     3.75463700     8.44511603    -1.16773764    -1.14624141     0.56563108
O       4.32192300     3.71674600     3.94372298     0.84875798     1.08816248    -1.55849816
O       1.45226097     8.11309000     8.50602999     0.08813616     0.85670629    -0.12192047
O       1.70674300     8.32840201     3.74157299    -1.43601127     1.06409489    -1.14613214
O       1.39266397     3.98236202     8.23813702     0.71082390    -1.01141271     0.84294265
O       1.46276800     3.69951499     3.88431802    -0.61939544    -0.23680820    -0.05426547
O       3.05372501     6.00098702     7.80750602    -0.04656218     0.78479636    -0.65779848
O       2.76903701     5.96043600     3.16026702     0.94463368     0.68733249     0.56575526
O       2.86360099     1.38234301     7.74775698     0.59091557     0.62484052     0.62068407
O       3.18682801     1.57392099     3.12966501    -0.75944065    -0.05233405    -0.79285883
O       5.71645899     6.00477899     7.85456898     1.22294259     0.85080021     0.19836402
O       0.07070999     6.23793100     3.25483702    -1.04322704    -0.99455989    -0.19553067
O       0.17228498     1.35353899     7.89089001    -0.44900554     1.08302284    -1.00523846
O       2.90237698     7.87849700     5.95485303    -0.18672258    -0.80862484     1.10961166
O       3.17420798     7.95312999     1.34725400    -1.74394058    -0.40396828     0.74319564
O       2.97679999     3.25861900     6.02111702     0.14922945     0.05317815     1.34032686
O       0.01476198     7.79225000     5.91123400     1.42728880     0.16707729     0.82385632
O       5.69888200     7.96556698     1.47467899     2.61466787     0.17192176    -0.70862715
O       5.83317602     3.11092902     5.97788203    -0.32478316     0.14723659     0.95555830
O       0.18551801     3.21610501     1.67911598    -0.28213625    -0.01430100    -0.84797431
