# total energy = -19957.92351961 eV

CRYSTAL
PRIMVEC
        5.46212592     0.00000000     0.00000000
        0.29051607     5.80609006     0.00000000
        0.00000000     0.00000000     9.77906121
PRIMCOORD
24 1
Ti      2.15191741     3.44068345     3.62796196     0.15106934    -0.68986580     0.49697283
Ti      3.60072435     2.36540639     6.15109937    -0.15106934     0.68986580    -0.49697283
Ti      4.82908727     2.36540838     1.26152962    -0.14288808     0.15646891    -0.20135550
Ti      0.92355455     3.44068169     8.51753181     0.14288808    -0.15646891     0.20135550
Ti      2.00665949     0.53763864     1.26156881     0.15106934    -0.68986580    -0.49697283
Ti      3.74598227     5.26845137     8.51749262    -0.15106934     0.68986580     0.49697283
Ti      0.77829662     0.53763649     6.15106012     0.14288808    -0.15646891    -0.20135550
Ti      4.97434520     5.26845352     3.62800121    -0.14288808     0.15646891     0.20135550
O       1.83109290     2.04442292     4.99018009     0.81135484     0.82663928    -0.11663917
O       3.92154886     3.76166692     4.78888124    -0.81135484    -0.82663928     0.11663917
O       1.10459434     2.04444635     0.10068091    -0.61483353     0.45782571     0.20002624
O       4.64804748     3.76164354     9.67838014     0.61483353    -0.45782571    -0.20002624
O       3.77629094     0.85862194     0.10064920    -0.81135484    -0.82663928    -0.11663917
O       1.97635082     4.94746790     9.67841185     0.81135484     0.82663928     0.11663917
O       4.50278956     0.85859857     4.99021185     0.61483353    -0.45782571     0.20002624
O       1.24985215     4.94749139     4.78884947    -0.61483353     0.45782571    -0.20002624
O       0.37516000     3.53159298     2.64156845     0.17166388     0.03484412     0.26163350
O       5.37748181     2.27449686     7.13749294    -0.17166388    -0.03484412    -0.26163350
O       3.04333039     2.27444277     2.24799331     0.35562741     0.30549319    -0.10551503
O       2.70931143     3.53164707     7.53106784    -0.35562741    -0.30549319     0.10551503
O       0.22990208     0.62854800     2.24796211     0.17166388     0.03484412    -0.26163350
O       5.52273974     5.17754184     7.53109905    -0.17166388    -0.03484412     0.26163350
O       2.56405351     0.62860210     7.13752409    -0.35562741    -0.30549319    -0.10551503
O       3.18858831     5.17748775     2.64153718     0.35562741     0.30549319     0.10551503
