# total energy = -39024.37038879 eV

CRYSTAL
PRIMVEC
        7.60600008     0.00000000     0.00000000
        0.00000000     7.60600008     0.00000000
       -3.79573973    -3.79573973     9.71340985
PRIMCOORD
46 1
Ti      1.77585546     3.82798345     6.36779062    -2.42921491     0.87076791    -0.62379408
Ti      3.88866098     0.13060301     1.59391601    -1.92393201    -0.55009312    -4.23167690
Ti      2.06893043     0.80792544     6.39923761    -1.09773136     0.70860529    -2.47783834
Ti      3.72731298     3.36777498     1.27565802     2.20282430    -1.73742386    -1.54347031
Ti     -2.04754257     4.05282843     6.16682460     3.00407753    -1.42267367     0.40774626
Ti     -0.16735299    -0.09740100     1.33748100     0.37412856    -0.10756574    -0.41543540
Ti     -1.87726757     0.66287245     6.07455461     0.00572225     0.84218032     0.51420334
Ti      0.10343097     3.27492200     1.33852898    -1.82158459    -0.82375270     0.10847283
Ti      3.89892945     1.54743943     8.60747364     0.83033653     1.42583844    -2.35421349
Ti      5.70627402     2.05464201     3.39360899     2.28869558     1.92054844    -0.09913663
Ti      4.01245046    -2.16358955     8.18692261     0.34806065     0.69031112     4.68349395
Ti      5.54539599     6.08411399     3.74598998     2.10744585    -1.44793399    -0.79637507
Ti      0.06149447     1.85585742     8.31046063    -2.72767021     0.28803025    -0.56891052
Ti      2.17734001     1.55392698     3.23295798    -3.52332589     5.61085700     5.90686873
Ti      0.04552147    -1.66175457     8.03087962    -0.40092075     2.16059598     2.97573497
Ti      1.78228999     6.19178097     3.54810901    -2.25876664    -0.59990492     2.57191633
O       1.19515645     4.92701544     4.99801462     2.09276999     1.01431806    -0.24719906
O       3.38330702     1.78868901     0.46346899     0.15671368    -1.05473427    -1.97919867
O       5.30972547     2.40529544     5.34249964    -0.30584286    -2.00174956    -1.02610683
O       0.11422302     5.22390298     0.58072298     0.11947072    -1.37124824     4.17911402
O      -1.67979555    -1.99606553     5.50131463     0.39513988     2.65228416    -0.53644210
O       0.02741900     1.66255199     0.50795502     0.89645196    -0.44570321    -0.73014317
O       3.83509342     3.45264343     9.14599261     0.00350441     0.99577320    -0.11161986
O       5.64127598     4.04186499     3.67561898    -0.43450554     0.86819013    -0.37929031
O       3.87388847    -0.35917953     8.59454060    -0.47165928    -0.07247583    -0.08051901
O      -1.44501601     0.19405798     4.33163102    -1.08905620     1.35591906    -0.27033514
O       3.36306499     6.61468499     0.05440900     1.11708432     0.27419874     1.70923453
O       1.65980344     2.45667744     5.20909565     2.50279939    -2.19693005    -0.30080555
O       0.40300446    -0.04887656     9.06813360    -1.00357573     1.34843844    -0.01685847
O       1.57336700     0.08064698     4.53358602     1.49307770    -0.15910789     0.72542417
O       1.78023043     2.23256246     7.92156160     3.73279272    -0.64634395    -0.78254511
O       3.93877698     1.89269398     2.66465601     0.73656374    -0.83297963     2.21831109
O       1.58967947    -2.41559456     7.96478660     1.65096946    -0.62138007    -0.65632678
O       3.77696002    -1.13855999     3.09678199    -0.28924227    -1.62165501     0.89681860
O      -1.90003854     1.77197145     7.82817764    -1.73871301    -1.17690388     0.16788050
O       0.01428001     1.75401800     2.86825198    -0.59007354     0.94081610    -0.34419268
O      -1.67332154    -2.20898354     7.89607764    -2.07613341    -0.92607519    -0.13419929
O      -0.02133600     6.27732200     2.98091599     0.47133121    -0.32080566    -1.16712880
O       3.81669843     4.51175343     6.71002664    -1.92286655    -2.06122666    -2.84821695
O       5.57038702    -0.09691701     1.84955699     3.94188185    -0.29186557    -0.46157515
O       4.00640445     0.13814844     6.08167062    -1.58477253     0.61568071     0.71113706
O       5.64903202     2.95770299     1.38376401     1.04201682     1.06638292     1.18002675
O      -0.20224456     3.24103645     6.79091260     0.13023079     1.94139727     0.43820793
O       2.09754802     0.27236298     2.22302002    -3.13048921    -4.81189797    -4.38795555
O       0.10638447     0.67332344     6.57272763     0.30324142    -1.95556611     0.99121643
O       2.03318398     3.27070398     2.23204001    -1.12725509     1.66686300    -0.81429850
