# total energy = -19517.88028388 eV

CRYSTAL
PRIMVEC
        5.93400000     0.00000000     0.00000000
        0.00000000     9.29699974     0.00000000
        0.00000000     0.00000000     4.64899994
PRIMCOORD
23 1
Ti      4.47571498     6.98405499     2.32263801     0.68495371    -0.19002259     0.18591011
Ti      4.41877800     2.35319800     2.27560701     0.42650632     0.13573810     0.39856536
Ti      1.45129702     7.01379798     2.27954102    -0.69021650    -0.31894727     0.12126098
Ti      1.46270402     2.33577298     2.32116700    -0.32230358     0.22931112     0.22870742
Ti      2.92708300     4.57740401     0.05843397     0.55225774     0.07135740    -0.11212251
Ti      2.96341102     0.03505498     0.05738202     1.03164524    -0.33593686    -0.55112645
Ti      5.92955502     4.65279298     0.03042801    -0.77197427     0.45445525    -0.49820542
Ti      0.05018400     0.02336302     4.53531500    -1.13996483    -0.04171231    -0.20920946
O       4.49836498     5.56265902     1.03124200    -0.72358146    -0.33154413    -0.79008024
O       4.42629797     0.98004701     0.91032902    -0.11179392    -0.44839130    -0.43325598
O       1.55925199     5.60540501     0.95048299     0.20080529    -0.17579050    -0.51851868
O       1.49132299     0.84356198     0.82584402    -0.22613478     1.12180641     1.29753520
O       4.51657403     8.32512201     3.81717601    -0.66759824    -0.02488546    -0.40969207
O       4.48282601     3.69116499     3.73840300    -0.46738276     0.64732303     0.09103920
O       1.40798598     8.26703402     3.83828902     0.88121662     0.01565262    -0.75752029
O       1.47220799     3.71802502     3.74723100     0.71578433     0.41865751    -0.08919443
O       2.84517800     1.43382301     3.24119700     1.04983400    -0.34939325    -0.28023235
O       0.05390199     5.96929401     3.26574702     0.12778773     0.49247160    -0.15568524
O       5.90903802     1.38195501     3.13368602     0.30434982    -0.28614075     0.46571026
O       3.01641500     7.87772302     1.38812300    -0.30551607    -0.52626747     1.26986961
O       2.98778799     3.38867399     1.38780300    -0.32889024    -1.74887248     1.21875837
O       5.91445399     7.73398901     1.49157498     0.31888119     1.87749402    -0.98558674
O       0.08184599     3.28016498     1.36762198    -0.53866585    -0.68636293     0.51307385
