# total energy = -19936.28659787 eV

CRYSTAL
PRIMVEC
        6.30406673     0.00000000     0.00000000
        0.00003137     6.07043955     0.00000000
        0.00000000     0.00000000    10.77254358
PRIMCOORD
24 1
Ti      2.28493961     3.59733680     3.99653693     0.17543955    -0.75956278     0.64298866
Ti      4.01915850     2.47310263     6.77600702    -0.17543955     0.75956278    -0.64298866
Ti      5.43686311     2.47310472     1.38969201     0.17586481     0.76009885    -0.64284262
Ti      0.86723506     3.59733502     9.38285212    -0.17586481    -0.76009885     0.64284262
Ti      2.28492398     0.56211715     1.38973523     0.17543955    -0.75956278    -0.64298866
Ti      4.01917419     5.50832246     9.38280890    -0.17543955     0.75956278     0.64298866
Ti      0.86721937     0.56211494     6.77596386    -0.17586481    -0.76009885    -0.64284262
Ti      5.43687874     5.50832474     3.99658014     0.17586481     0.76009885     0.64284262
O       1.99528799     2.13750489     5.49714667     1.12490639     1.23114184    -0.34119940
O       4.30881018     3.93293454     5.27539728    -1.12490639    -1.23114184     0.34119940
O       1.15680441     2.13752944     0.11090938    -1.12490202     1.23180930    -0.34229880
O       5.14729382     3.93291005    10.66163432     1.12490202    -1.23180930     0.34229880
O       4.30879449     0.89771470     0.11087445    -1.12490639    -1.23114184    -0.34119940
O       1.99530368     5.17272472    10.66166925     1.12490639     1.23114184     0.34119940
O       5.14727813     0.89769022     5.49718166     1.12490202    -1.23180930    -0.34229880
O       1.15681992     5.17274927     5.27536235    -1.12490202     1.23180930     0.34229880
O       0.22906051     3.69238547     2.90993284    -0.12181891    -0.12988935     0.15092124
O       6.07503766     2.37805402     7.86261110     0.12181891     0.12988935    -0.15092124
O       3.38109947     2.37799752     2.47637338    -0.12148621     0.13022822    -0.15120303
O       2.92299864     3.69244197     8.29617044     0.12148621    -0.13022822     0.15120303
O       0.22904483     0.65716563     2.47633894    -0.12181891    -0.12988935    -0.15092124
O       6.07505328     5.41327386     8.29620482     0.12181891     0.12988935     0.15092124
O       2.92298302     0.65722213     7.86264548     0.12148621    -0.13022822    -0.15120303
O       3.38111515     5.41321729     2.90989847    -0.12148621     0.13022822     0.15120303
