# total energy = -18981.70395806 eV

CRYSTAL
PRIMVEC
        7.60600008     0.00000000     0.00000000
        0.00000000     7.60600008     0.00000000
       -1.89786986    -1.89786986     4.85670466
PRIMCOORD
22 1
Ti      5.07655299     4.90601102     0.41222199    -7.52497768     0.41265321    -3.27291269
Ti      5.62032421     3.60752022     2.88348879   -12.02043676     6.48389469   -11.31119640
Ti     -0.65784580     4.31474625     4.84647080    10.92871792    11.79501186     7.46685273
Ti      0.35533400     3.24607300     0.83319498     2.76575649   -17.81771989    18.87154296
Ti      5.81141620     2.93355822     4.59031980   -37.97366357    43.29919358    36.45543482
Ti      5.72202525     1.71536621     3.74259583   -44.45040699   -52.00888231   -37.98400944
Ti     -0.56579076     2.22061724     4.21001582    81.19157658    -7.69225860    -5.33201202
Ti     -0.43365176    -0.30969479     4.09164480    -1.05553594    -3.13349663     2.02430509
O       4.09068101     4.08876798     2.00185102     0.55062663     1.37774645    -1.97606732
O       3.61256698     7.22216999     0.38720698     0.65895676    -1.17594255    -0.02305149
O       1.06598000     4.85522598     1.56180199     1.31683417     1.43493861    -1.39517802
O       1.63353699     0.16056000     0.51217801     0.26239506     1.32943463     0.84297402
O       6.66761700     4.67259702     2.08551601     9.11459674    23.59505537    18.77453495
O       5.98429200     2.03630798     2.02492897    -0.05276626    -3.83048336    -2.05846555
O       1.05855823     3.33838824     4.73225879     0.27416814     0.86387581    -0.91227711
O       2.22257398     2.45466001     0.65308998    -0.52023489     2.07087961    -0.97286106
O       3.43249622     1.87433624     3.74483283     0.95569663     2.97927846     3.35278070
O       0.43737902     1.97450299     2.27875101    -0.32647237     0.91747356     0.39793878
O       5.19216721     4.72144622     4.30846481    -2.78487985     3.18238540     1.91424692
O       6.35126600     3.96192202     1.31456900    -6.10392664   -14.82451556   -21.69973821
O       0.60456924    -0.85122579     3.01951381     1.80090648    -0.94622134    -2.73880721
O       5.03206024    -0.12922376     4.50320579     2.99306935     1.68769922    -0.42403395
