# total energy = -4985.04361401 eV

CRYSTAL
PRIMVEC
        3.82496321     0.00000000     0.00000000
        0.00000000     2.88558806     0.00000000
        0.00000000    -0.00007629     5.05910623
PRIMCOORD
6 1
Ti      1.91248156     1.44275573     2.52955317     0.00000000     0.00000000     0.00000000
Ti      0.00000000     0.00000000     0.00000000     0.00000000     0.00000000     0.00000000
O       1.91248156     0.56234369     0.98594532    -0.00000000    -1.78743081    -0.67230850
O       1.91248156     2.32316778     4.07316102    -0.00000000     1.78743081     0.67230850
O       0.00000000     0.88038171     3.51549952     0.00000000     1.78751334    -0.67249542
O       0.00000000     2.00512975     1.54360681     0.00000000    -1.78751334     0.67249542
