# total energy = -4988.42444874 eV

CRYSTAL
PRIMVEC
        4.12071119     0.00000000     0.00000000
       -0.00000768     3.37149079     0.00000000
       -2.06038309    -1.68578392     4.82914929
PRIMCOORD
6 1
Ti     -0.00017885     2.52874374     1.20728745    -0.00171878    -0.00432743     5.74710084
Ti      2.06049927    -0.84303709     3.62186199     0.00171878     0.00432743    -5.74710084
O       0.00004251     0.84286560     0.78662902     0.00120533     0.00419527    -1.08431020
O       2.06027781     0.84284095     4.04252048    -0.00120533    -0.00419527     1.08431020
O      -0.00001993    -0.84285793     3.20120356    -0.00131461    -0.00036690    -0.18568205
O       2.06034015     2.52856448     1.62794589     0.00131461     0.00036690     0.18568205
