# total energy = -4989.85373426 eV

CRYSTAL
PRIMVEC
        3.68034471     0.00000000     0.00000000
        0.54895570     3.63917365     0.00000000
       -2.11468337    -1.81961536     4.71028014
PRIMCOORD
6 1
Ti      0.41158294     2.72951934     1.17756978     0.00132926    -0.00132926     0.00000000
Ti      1.70303448    -0.90996072     3.53270985    -0.00132926     0.00132926     0.00000000
O       0.13727763     0.90978797     0.76726602    -0.00008305     0.00046203     0.33737874
O       1.97733963     0.90977051     3.94301360     0.00008305    -0.00046203    -0.33737874
O      -0.13725512    -0.90976859     3.12240609     0.00046203    -0.00008305     0.33737874
O       2.25187233     2.72932707     1.58787354    -0.00046203     0.00008305    -0.33737874
