# total energy = -19073.97866144 eV

CRYSTAL
PRIMVEC
        5.17600016     0.00000000     0.00000000
        0.00000000     5.50899976     0.00000000
        0.00000000     0.00000000     9.26300011
PRIMCOORD
22 1
Ti      1.82202898     3.31044900     3.18242197     0.21409970     0.58600836     1.39428251
Ti      3.47989299     2.24664599     6.01756000     0.87795698    -0.25665738    -0.63500615
Ti      4.50728501     2.16676298     1.28890798    -0.93579345    -0.95898378    -2.00860053
Ti      0.69861700     3.31347600     8.08828699     0.82798808     1.12826888     1.68362171
Ti      1.83809501     0.55111800     1.34069099    -0.31194898    -0.95167748    -3.02753732
Ti      3.24678400     4.97275900     8.00049500     0.28205218     1.92970594     2.25449116
Ti      0.60623101     0.44842999     5.94796102     0.61787283     0.18255945    -1.13537284
Ti      4.43514100     4.88614999     3.43336799    -0.96704008     0.71090926     1.38398164
O       3.35545399     3.44420802     4.55705302    -0.89724900     0.06864411    -0.10321286
O       0.84457599     2.06795802     0.22332698     0.61773219    -1.18794883    -0.26449617
O       4.46068899     3.91813800     9.09480599    -1.09844690    -0.54418344    -0.23346448
O       3.39531702     0.86349598     0.15748299     0.47857066     0.90519166    -0.53303848
O       1.61651098     4.80811899     9.14978703    -0.16084982     0.06441464    -1.06140269
O       4.56922102     0.98862698     4.61422898    -1.54712822     0.17789007     0.76442371
O       0.84418800     4.73253301     4.34583901     1.66556639    -1.38613082     1.28207927
O       0.04287198     3.45036802     2.42583202     0.62618007    -0.58072783     0.52779188
O       0.23037102     2.36825298     6.52934298    -0.79859214    -1.03374789    -0.07552798
O       2.72520701     1.96429500     2.18615499    -0.06130618     0.34102842     1.69594295
O       2.59756099     3.39919398     7.44265698    -0.56182302    -2.28154714    -2.22130180
O       5.15635498     0.52544300     2.12297800     0.80434421     0.96674055    -0.65532739
O       2.51066501     0.56107198     6.46869101    -0.44618324     0.88755285     0.08651842
O       2.63768099     4.53947698     2.19282803     0.77399773     1.23269041     0.88115518
