# total energy = -4985.12890867 eV

CRYSTAL
PRIMVEC
        3.43037728     0.00000000     0.00000000
        0.00000000     3.22493191     0.00000000
        0.00000000    -0.00006351     4.58656977
PRIMCOORD
6 1
Ti      1.71518849     1.61243429     2.29328498     0.00000000     0.00000000     0.00000000
Ti      0.00000000     0.00000000     0.00000000     0.00000000     0.00000000     0.00000000
O       1.71518849     0.62847939     0.89385494     0.00000000    -2.27589405    -2.17568116
O       1.71518849     2.59638920     3.69271507     0.00000000     2.27589405     2.17568116
O       0.00000000     0.98392954     3.18714082     0.00000000     2.27508364    -2.17411973
O       0.00000000     2.24093905     1.39942914     0.00000000    -2.27508364     2.17411973
