# total energy = -19074.71150270 eV

CRYSTAL
PRIMVEC
        7.60600008     0.00000000     0.00000000
        0.00000000     7.60600008     0.00000000
       -1.89786986    -1.89786986     4.85670466
PRIMCOORD
22 1
Ti      3.64213900     6.77304800     1.11224501     1.16114379    -0.23372802     0.32253164
Ti      3.90256199     2.87217101     1.49633599     0.48369899     1.68480339    -1.25646953
Ti      0.05911301     6.67164203     1.15544598    -0.11023557     0.07524825     0.93365661
Ti     -0.15562002     2.84782002     1.26857900     0.12082827    -1.13699880     0.33445771
Ti      5.91800922     2.81803920     3.90280880     0.35290255     1.23823680    -1.76357071
Ti      5.81796921    -0.74194577     3.49591383    -0.41472758    -2.37551123     1.87719757
Ti      1.90051824     2.80244223     3.92078680    -0.51307025    -0.62319527     1.00804791
Ti      1.76144823    -0.71163180     3.66856579     1.16812073    -0.52588438     1.10373334
O       3.84993002     4.84407399     0.99746599    -0.69005992    -0.80128717    -1.06558407
O       3.44001101     1.22718501     0.94307599    -0.39101814    -1.94994953    -0.21805431
O      -0.03432201     4.70655998     1.12338901     0.42598207    -0.35406032    -1.34165046
O      -0.13790698     0.83462000     0.63044400    -0.08410030     2.48582085     1.11029917
O       5.83976221     4.74434620     4.11402381     0.13758801    -1.16013643    -0.89033119
O       5.58787522     0.97226022     4.01326079    -0.88957811     0.70285836     0.94047929
O       1.82546021     4.94426021     4.12597883    -0.04210800     0.24802130    -0.38483644
O       2.53488222     0.96974425     4.23876682    -1.42166734    -0.33392035    -0.84184994
O       3.55180521     3.08449122     3.26130680     1.20658908     0.19762715     0.22088073
O       0.11599422     2.36076523     3.38556180     0.17144894     1.09265703    -0.18271937
O       5.51363202     6.57503601     1.72435503    -0.08939780     0.67617056    -0.78311306
O       5.69733500     2.98182898     1.81768999     0.37482224    -0.68281403     1.08060626
O       1.94802798     6.36819899     1.67786897    -1.08366691     1.39703693     0.55309823
O      -0.01229379    -0.64124175     3.26673081     0.12650526     0.37900517    -0.75680964
