# total energy = -4984.84088652 eV

CRYSTAL
PRIMVEC
        3.58687657     0.00000000     0.00000000
        0.00000000     3.02620654     0.00000000
        0.00000000    -0.00006836     4.75071642
PRIMCOORD
6 1
Ti      1.79343819     1.51306904     2.37535836     0.00000000     0.00000000     0.00000000
Ti      0.00000000     0.00000000     0.00000000     0.00000000     0.00000000     0.00000000
O       1.79343819     0.58974975     0.92584471     0.00000000    -2.47408479    -2.05251241
O       1.79343819     2.43638838     3.82487196     0.00000000     2.47408479     2.05251241
O       0.00000000     0.92329205     3.30120397    -0.00000000     2.47449205    -2.05303101
O       0.00000000     2.10284603     1.44951274    -0.00000000    -2.47449205     2.05303101
