# total energy = -19938.55845543 eV

CRYSTAL
PRIMVEC
        4.77267161     0.00000000     0.00000000
        1.25037914     4.92326526     0.00000000
        0.00000000     0.00000000     8.61060538
PRIMCOORD
24 1
Ti      2.47083748     2.91752258     3.19447334     2.97346623    -1.30337392     0.59640488
Ti      3.55221340     2.00574301     5.41613252    -2.97346623     1.30337392    -0.59640488
Ti      4.62552713     2.00574471     1.11079521    -5.15197380     0.16626302     2.41905442
Ti      1.39752378     2.91752107     7.49981075     5.15197380    -0.16626302    -2.41905442
Ti      1.84564801     0.45588999     1.11082973     2.97401258    -1.30219301    -0.60540709
Ti      4.17740290     4.46737579     7.49977623    -2.97401258     1.30219301     0.60540709
Ti      0.77233422     0.45588810     5.41609800     5.15173700    -0.16641600     2.43111032
Ti      5.25071668     4.46737763     3.19450787    -5.15173700     0.16641600    -2.43111032
O       1.95086046     1.73356550     4.39392622    -2.04244629    -1.06077585    -0.88226564
O       4.07219038     3.18970009     4.21667964     2.04244629     1.06077585     0.88226564
O       1.31606784     1.73358537     0.08865103     1.86779350    -1.24650830    -0.68905590
O       4.70698310     3.18968031     8.52195459    -1.86779350     1.24650830     0.68905590
O       3.44700089     0.72806735     0.08862309     2.04208993     1.06106561    -0.88201110
O       2.57604999     4.19519823     8.52198253    -2.04208993    -1.06106561     0.88201110
O       4.08179361     0.72804752     4.39395416    -1.86870675     1.24714002    -0.68938115
O       1.94125723     4.19521812     4.21665170     1.86870675    -1.24714002     0.68938115
O       0.93395367     2.99460913     2.32593946    -0.83462976    -2.11748910    -2.65852088
O       5.08909717     1.92865646     6.28466640     0.83462976     2.11748910     2.65852088
O       3.04956356     1.92861055     1.97939087     1.21645132    -2.79069929    -2.65616395
O       2.97348733     2.99465508     6.63121484    -1.21645132     2.79069929     2.65616395
O       0.30876418     0.53297639     1.97936337    -0.83486656    -2.11775315     2.65822109
O       5.71428671     4.39028924     6.63124235     0.83486656     2.11775315    -2.65822109
O       2.34829784     0.53302230     6.28469385    -1.21649811     2.79087155    -2.65524967
O       3.67475305     4.39024329     2.32591196     1.21649811    -2.79087155     2.65524967
