# total energy = -19517.81020338 eV

CRYSTAL
PRIMVEC
        5.93400000     0.00000000     0.00000000
        0.00000000     9.29699974     0.00000000
        0.00000000     0.00000000     4.64899994
PRIMCOORD
23 1
Ti      4.47640799     6.97378901     2.26824499     1.27959147     0.01704616     0.10993321
Ti      4.48497902     2.32262399     2.34032301    -0.38737437     0.47835289    -0.40121026
Ti      1.51834601     7.06062498     2.24837502    -0.89937762    -0.08362696    -0.30164399
Ti      1.47281702     2.31104998     2.36357802     0.25271588     0.11753468    -0.39421351
Ti      2.95470399     4.56425798     0.13853601    -0.40866363    -0.31482733     1.06642148
Ti      3.00700199     0.09456001     4.58006799    -0.62620372    -0.92386224    -0.14282278
Ti      5.91118802     4.56109598     4.63698101     0.34417365     1.14262361    -0.45285885
Ti      5.92920100     0.08331700     4.61151001     0.50499673    -0.86278824     0.04299709
O       4.49199702     5.46298801     0.99796299    -0.72706813     0.45566547    -0.22058993
O       4.40653903     0.92707499     0.84871702     0.11001729     0.46808365     0.65569814
O       1.44153000     5.54671100     1.03675899     0.76031508    -0.18673158    -0.73229930
O       1.49879402     0.95771298     0.93996601    -0.24234019    -0.28035396    -0.51003044
O       4.43840301     8.49291999     3.57144499    -0.12906788    -0.51890666     0.66599773
O       4.38481000     3.60488000     3.82158602     0.21328928     0.86913552     0.01045205
O       1.35346099     8.42972999     3.75365400     0.83215482    -0.41587892    -0.70592389
O       1.55468302     3.65861699     3.85899001    -0.39314496     0.40126579    -0.40579505
O       3.00194898     1.48136699     3.21960202    -0.42423809    -0.85483247     0.17110235
O       5.90971902     5.93047701     3.28476300    -0.32448979     0.72775128    -0.17483482
O       5.90374800     1.39237197     3.15777300     0.06857032    -0.06998160     0.73771688
O       2.93861700     7.87780002     1.23749597     0.13908259    -0.95858449     1.42234148
O       2.88252802     3.30584902     1.50349602     0.77413888    -0.19226537    -0.01959104
O       0.00312701     7.77694000     1.42642501    -0.38081831     1.12515630    -0.68730087
O       0.02894499     3.22553801     1.44888302    -0.33625928    -0.13997528     0.26645483
