# total energy = -39029.41924361 eV

CRYSTAL
PRIMVEC
        7.60600008     0.00000000     0.00000000
        0.00000000     7.60600008     0.00000000
       -3.79573973    -3.79573973     9.71340985
PRIMCOORD
46 1
Ti      1.99923446     4.40095546     6.27135161     1.86016477     0.63496939    -0.67703599
Ti      3.59541598    -0.34355499     1.48251298    -2.19343206    -1.95903375    -0.42152146
Ti      2.05451543     0.37247046     6.18848161    -0.00327199    -0.80266682    -1.66910911
Ti      3.80172102     2.94983503     1.12755702    -1.15988343     0.97339816    -0.18031642
Ti     -1.74623957     4.41370943     6.15545364    -1.48386415     1.44746914    -0.36552770
Ti     -0.37192202     6.88350999     1.30628600     2.26488767     0.10581559     0.62026164
Ti     -1.66921058     0.86297644     6.07117264    -0.66205288     0.06858523    -1.00611418
Ti     -0.10614502     3.16880698     1.07921202     1.23936937    -0.86018165    -0.28834881
Ti      3.82064747     1.30173947     8.38309460     0.67821818    -0.98447037    -0.76750543
Ti      5.56924903     2.56107401     3.32162200    -0.14824652     1.25910568     1.72112075
Ti      3.89467143    -2.62047156     8.55667664     0.60981653     1.59104036    -1.52727235
Ti      5.61540402    -1.13558400     3.69367800    -0.24695224    -1.64306588     1.32169561
Ti      0.28112446     1.13183145     8.39210464    -2.38125327     1.09956944    -1.34772084
Ti      1.70874202     2.59660302     3.52834101     0.56341710     0.91824824    -1.36228975
Ti      0.08761344    -2.84815653     8.57849161     0.53152384     1.22518125    -1.26723654
Ti      1.93569699    -1.12372398     3.85714900    -0.84007202    -0.37184336    -2.01525455
O       2.09861447    -1.44107856     5.74597063    -1.03914644     1.68053973    -0.37605226
O       3.36504200     1.29485302     0.57098199    -0.19960227    -0.88997612     2.86021295
O      -2.12152658     2.63871743     5.46999363     1.31344288     1.44065854     0.11530091
O       7.03087601     4.97992602     0.98124300     0.87616775     1.22880445    -1.40403188
O      -1.56768157    -1.20264854     5.63115663    -0.60685282     0.83084021    -0.27968625
O       0.20858802     1.20065698     0.62090600    -0.74336765    -0.75777586     2.01499101
O       3.77090946     3.13832145     8.68599963    -0.36896501    -2.37762519     1.44898300
O       5.88195801     4.52672597     3.67622801    -1.32144236     0.33386198     1.14613419
O       3.78376143    -0.64433855     8.70705162     0.48063295     1.18778582     1.44723414
O       5.32445898     0.85378500     3.87385301     0.62321661    -1.68908453     1.35711566
O      -0.03415056     2.48930043     9.59535660     0.24193370     1.29432724     0.56311782
O       1.95220102     4.25615500     4.30170102    -0.94503169    -0.96953122     0.16402153
O       0.19925444    -0.56348355     8.64022960    -0.52379690    -2.29238049     1.66630378
O       2.23103801     0.88884601     4.34286598    -1.82971082    -0.82710362    -1.46049358
O       1.99324846     1.25196543     7.81515062     2.67411232     1.51235558     2.99482593
O       3.62245000     2.68424800     3.02644698     1.59711691     0.05310487    -0.72747154
O       1.98871346    -2.53969154     8.03831763    -0.47107281    -0.67763223     1.96888571
O       3.59582202     6.08810600     3.20965698     0.77178812     1.14693432    -0.15180801
O      -1.78884057     1.43335247     7.79549364    -0.38739340    -0.92324852     0.51145406
O      -0.17891398     2.53654198     3.05531900     1.83781751    -0.30798279     0.16238039
O      -1.75887056    -2.62818654     8.21602461     0.62044008    -0.87825574    -1.68818619
O      -0.23651000    -1.00833698     3.32859401     2.15134334     0.61965563    -1.33153163
O       3.97380946     4.78641145     6.59920861     0.81206858    -1.48433954    -1.39878503
O       5.44985801    -0.33670300     1.71388700     1.38902409    -0.46869942    -0.40428247
O       3.72521443     0.80469545     6.21233364     4.06503182     0.67475954     2.34046476
O       5.72129102     2.58069701     1.26817598    -2.23142809     0.78370133     0.91586482
O       0.21316244     4.33525546     6.70570162    -2.22658799    -1.34028649    -1.52480075
O       1.70420703    -0.64928498     1.74603902     0.00840571    -0.22663151     0.72229539
O       0.38273544     1.13610646     6.40420563    -4.57782439     0.23835652    -1.54498649
O       1.80842298     3.20984902     1.66196402    -0.61868864     0.38274664    -0.87529486
