# total energy = -4988.03701207 eV

CRYSTAL
PRIMVEC
        3.76210966     0.00000000     0.00000000
        1.44695856     3.47271939     0.00000000
       -2.60456903    -1.73638298     4.90422217
PRIMCOORD
6 1
Ti      1.08511722     2.60467324     1.22605529     0.00055973    -0.00055973     0.00000000
Ti      1.51938207    -0.86833679     3.67816622    -0.00055973     0.00055973     0.00000000
O       0.36177875     0.86817530     0.79885760    -0.00010747     0.00000257    -1.65031666
O       2.24272037     0.86816107     4.10536396     0.00010747    -0.00000257     1.65031666
O      -0.36174626    -0.86815364     3.25096858     0.00000257    -0.00010747    -1.65031666
O       2.96624532     2.60448997     1.65325303    -0.00000257     0.00010747     1.65031666
