# total energy = -4987.33248834 eV

CRYSTAL
PRIMVEC
        3.41109278     0.00000000     0.00000000
        0.00000000     4.83565504     0.00000000
        0.00000000    -0.00006614     5.10292014
PRIMCOORD
6 1
Ti      1.70554639     2.41779427     2.55146007     0.00000000     0.00000000     0.00000000
Ti      0.00000000     0.00000000     0.00000000     0.00000000     0.00000000     0.00000000
O       1.70554639     0.94238498     0.99448397     0.00000000    -0.20868264    -0.27479832
O       1.70554639     3.89320351     4.10843611     0.00000000     0.20868264     0.27479832
O       0.00000000     1.47538249     3.54594507     0.00000000     0.20895595    -0.27449879
O       0.00000000     3.36020606     1.55697501     0.00000000    -0.20895595     0.27449879
