# total energy = -19957.40534742 eV

CRYSTAL
PRIMVEC
        7.60600008     0.00000000     0.00000000
        0.00000000     7.60600008     0.00000000
       -1.89786986    -1.89786986     4.85670466
PRIMCOORD
24 1
Ti      3.82933000     6.62937701     1.14538902     1.82739914    -0.93760299    -0.77337192
Ti      3.73506400     2.70729701     1.19522900     0.92560519     0.31090897     0.59445598
Ti     -0.04367199     6.86798398     1.24708202    -1.35107253    -3.63385817    -0.74483241
Ti     -0.00362799     2.91261598     1.22317602    -1.29026206     3.37548535     1.34146020
Ti      5.61275824     3.00400722     3.65702179    -0.68872577     0.32509349     0.71563109
Ti      5.78247422    -0.77945279     3.77028583    -2.52841247    -0.85143578    -1.85826601
Ti      1.84125922     2.60758721     3.62734283     0.60172732     1.37120916     2.05745151
Ti      1.94937622    -1.01284277     3.54949080     2.05834599    -1.56331872     0.35539061
O       3.98525901     4.45912898     0.71820503    -1.97531450     1.66982285    -0.46352919
O       4.06026702     0.84348800     0.66763002    -1.34442854    -0.41707654     0.41473015
O      -0.10915800     4.85262502     0.81472002     0.86632505    -1.14823119    -0.02382231
O      -0.05343399     1.05564601     0.92587900     0.40442671    -0.31006539    -0.96637905
O       5.22761722     4.74732923     4.24355884     1.99059689     1.63377957    -1.81643158
O       5.57679721     1.03501921     4.21843181     0.47279571    -0.76709688    -2.10123612
O       2.43390520     4.48411122     4.15136182    -3.04382757     2.20986579    -0.47034802
O       2.12361820     0.71473225     4.06157182    -1.46543550     1.08573562    -1.03598141
O       3.58750023     2.72042822     3.36895082     3.28631226    -0.98002544    -2.94227282
O       3.94090422    -0.84948379     3.16306980    -0.13076893    -0.22432035    -0.10733948
O      -0.01886575     3.00780920     3.32624679    -0.75828622    -0.27714625    -0.86234446
O       0.01547722    -0.89931975     3.15138382    -0.26732104    -0.15287014     1.81299118
O       5.70396501     6.59156698     1.46499700     1.16588079     0.55551558     2.53973022
O       5.55966901     2.97662499     1.58795202     1.74850969    -1.09921849     2.38081721
O       1.97066100     6.54833002     1.55257102    -0.70458074     0.37187884     0.31462807
O       1.83827599     2.85548399     1.28744999     0.20051064    -0.54702888     1.63886804
