# total energy = -19518.49665629 eV

CRYSTAL
PRIMVEC
        7.60600008     0.00000000     0.00000000
        0.00000000     7.60600008     0.00000000
       -1.89786986    -1.89786986     4.85670466
PRIMCOORD
23 1
Ti      3.79249799     6.60307600     1.22747801     0.69467197    -0.64491519    -0.99294395
Ti      3.88297301     2.77483902     1.27085499    -0.05099502     0.38506835    -0.53654109
Ti      0.10307299     6.87197700     1.21001601    -1.44352635    -1.20817391     0.83505965
Ti     -0.07358199     2.91281902     1.12790501     1.22367921     0.51358602    -0.69001750
Ti      5.58871222     2.91976823     3.75416381     0.80582902    -0.59076516    -0.66364080
Ti      5.67256220    -1.01391478     3.57691282     0.31012015     0.99760074    -0.23027323
Ti      2.09618121     2.71638425     3.62820380    -1.77989850     0.81617000     0.61919875
Ti      1.89444625    -1.02514879     3.63940283    -0.37712107    -0.86135536     0.47765175
O       4.07195798     4.72329400     0.79816101    -0.80954453    -0.78989332    -0.34608167
O       4.02102202     0.87876598     0.75968998    -0.52892857     0.51722079    -0.12579693
O      -0.16500101     4.91135301     0.75847002     0.78356198    -0.64541655     1.23950924
O      -0.27351098     1.01314302     0.78878600     0.85936353    -0.40733925    -0.46084830
O       5.60323025     4.76397222     4.01078683     1.28656070     1.33565182     0.25870630
O       5.65563023     1.03634422     4.08677182     0.19576952    -0.68631125    -0.49514297
O       1.56216723     4.60868225     3.95587184     0.46527111     0.19011309     0.57547018
O       1.81747620     0.85492024     3.98112782     0.55390402     1.23940845     0.68623257
O       3.84176624     2.86579723     3.22998183    -0.46091129    -0.10578422    -0.43767031
O       3.76062623     6.28892220     3.12293282    -0.52471916     0.80011809     0.76724729
O       0.02463421    -0.78206180     3.25243382    -0.92851260    -0.77015521    -0.48627652
O       5.64557200     6.74185998     1.72278099     0.88874765    -0.03419029    -0.40579736
O       5.80957397     2.84333398     1.65716301    -0.81654616     0.22951809     0.72559643
O       1.92027100     6.86429800     1.63874103    -0.41628027    -0.19268523    -0.51775866
O       1.79080201     2.81707398     1.66631899     0.06950491    -0.08747025     0.20411713
