# total energy = -19958.31378709 eV

CRYSTAL
PRIMVEC
        5.21715868     0.00000000     0.00000000
        0.00002596     5.02381204     0.00000000
        0.00000000     0.00000000     8.91520848
PRIMCOORD
24 1
Ti      1.89098450     2.97710632     3.30747884    -0.27667163     0.87595203    -1.28892175
Ti      3.32620014     2.04670562     5.60772994     0.27667163    -0.87595203     1.28892175
Ti      4.49947292     2.04670735     1.15008994    -0.27385061    -0.87557845     1.30407738
Ti      0.71771177     2.97710484     7.76511899     0.27385061     0.87557845    -1.30407738
Ti      1.89097157     0.46520040     1.15012571    -0.27714188     0.87374782     1.30327956
Ti      3.32621312     4.55861169     7.76508323     0.27714188    -0.87374782    -1.30327956
Ti      0.71769879     0.46519857     5.60769423     0.27344849     0.87345395     1.28984400
Ti      4.49948585     4.55861358     3.30751460    -0.27344849    -0.87345395    -1.28984400
O       1.65127282     1.76896956     4.54936276    -0.20220603    -0.93309688     0.57332819
O       3.56591187     3.25484238     4.36584602     0.20220603     0.93309688    -0.57332819
O       0.95735538     1.76898988     0.09178707     0.20250042    -0.93352959     0.57391852
O       4.25982937     3.25482211     8.82342151    -0.20250042     0.93352959    -0.57391852
O       3.56589889     0.74293631     0.09175817     0.20191215     0.93252764     0.57331251
O       1.65128580     4.28087563     8.82345041    -0.20191215    -0.93252764    -0.57331251
O       4.25981638     0.74291604     4.54939172    -0.20238292     0.93372551     0.57357528
O       0.95736821     4.28089595     4.36581711     0.20238292    -0.93372551    -0.57357528
O       0.18956732     3.05576729     2.40822028     0.45221402    -0.13086637     0.21063025
O       5.02761737     1.96804471     6.50698850    -0.45221402     0.13086637    -0.21063025
O       2.79815128     1.96799795     2.04941245     0.45148151     0.13053444    -0.21095729
O       2.41903336     3.05581404     6.86579623    -0.45148151    -0.13053444     0.21095729
O       0.18955434     0.54386121     2.04938395     0.45195459    -0.13061029    -0.21123549
O       5.02763030     4.47995078     6.86582467    -0.45195459     0.13061029     0.21123549
O       2.41902043     0.54390797     6.50701695    -0.45160030    -0.13067020    -0.21051249
O       2.79816426     4.47990397     2.40819184     0.45160030     0.13067020     0.21051249
