# total energy = -4987.23210319 eV

CRYSTAL
PRIMVEC
        3.22500389     0.00000000     0.00000000
        1.48257103     4.83071207     0.00000000
       -0.00000987    -0.00006622     5.11221659
PRIMCOORD
6 1
Ti      2.35378259     2.41532297     2.55610829     0.00000000     0.00000000     0.00000000
Ti      0.00000000     0.00000000     0.00000000     0.00000000     0.00000000     0.00000000
O       1.90143129     0.94142183     0.99629570     0.34511442    -0.03697582    -0.36370119
O       2.80613395     3.88922411     4.11592083    -0.34511442     0.03697582     0.36370119
O       0.45234725     1.47387434     3.55240513    -0.34559136     0.03701593    -0.36323376
O       1.03021412     3.35677136     1.55981146     0.34559136    -0.03701593     0.36323376
