# total energy = -19075.34665016 eV

CRYSTAL
PRIMVEC
        7.60600008     0.00000000     0.00000000
        0.00000000     7.60600008     0.00000000
       -1.89786986    -1.89786986     4.85670466
PRIMCOORD
22 1
Ti      3.85900202     6.58382400     1.19495198    -1.04448276     0.30572639    -0.24063966
Ti      3.79949498     2.86057801     1.14063003     0.81125868    -0.51797078    -0.36573262
Ti      0.33534301     6.73493401     1.00903597     0.33250547    -0.30438247     1.09177334
Ti      0.00323798     2.80195703     1.27471201    -1.52206535     0.26886550    -0.64535665
Ti      5.56398620     2.94489320     3.63840083     1.67719729    -0.44137064     0.16235777
Ti      5.99226221    -0.77684977     3.51749579     0.40053945    -0.64177536     2.62097454
Ti      1.89206622     2.74462623     3.54868381    -1.40129699    -0.17174436     0.67351718
Ti      1.41413423    -1.11169075     3.89820882    -0.47846448     0.13095430    -1.22665449
O       3.88330999     4.69095100     0.60910699    -0.39137964    -0.29008071     0.94822834
O       4.11808001     0.85145302     0.73811998    -0.60594625     0.59625833     1.91132975
O       0.03780199     4.87047502     0.73432900     0.12166645    -0.23551159     0.08092165
O      -0.10111101     0.92252200     0.94012000     0.23250674     1.30239305     0.00087546
O       5.77100325     4.91858220     4.00563180    -0.29588986    -0.25261329    -1.08410245
O       5.45957921     0.95890722     4.07469081     0.66231976    -0.15053352    -0.08853751
O       1.99819520     4.70409725     4.17264681    -0.29198950    -0.92375863    -1.61869696
O       1.54730121     0.70240025     4.06579581     0.59562121     2.77684824     0.23597851
O       3.77282720     2.79289222     3.14902983    -0.89876004    -0.01547265    -0.13808757
O      -0.07485980     2.74171623     3.27650583     0.87823800     0.45078808    -0.60614114
O       5.57633402     6.53677099     1.82933998     0.48333441    -0.05254694    -1.01008036
O       5.71570301     3.10923401     1.62124399    -0.80160187    -0.58612149     0.21433701
O       2.01475099     6.76081998     2.12255699     0.81753295    -0.92575200    -1.76276287
O       1.85909102     2.95264898     1.51328998     0.71915582    -0.32219945     0.84649849
