# total energy = -4985.82568844 eV

CRYSTAL
PRIMVEC
        4.35175224     0.00000000     0.00000000
       -0.00000746     3.21651271     0.00000000
       -2.17590275    -1.60829843     4.94055752
PRIMCOORD
6 1
Ti     -0.00018793     2.41250297     1.23513909    -0.00420247    -0.00905389     8.84839079
Ti      2.17602974    -0.80428869     3.70541769     0.00420247     0.00905389    -8.84839079
O       0.00004539     0.80412056     0.80477631     0.00236722     0.00323265    -2.92956668
O       2.17579626     0.80409366     4.13578047    -0.00236722    -0.00323265     2.92956668
O      -0.00001948    -0.80411747     3.27505491    -0.00178589    -0.00021854    -0.83143748
O       2.17586108     2.41233159     1.66550192     0.00178589     0.00021854     0.83143748
