# total energy = -19905.37430360 eV

CRYSTAL
PRIMVEC
        8.24238573     0.00000000     0.00000000
        0.00002900     4.72359520     0.00000000
        0.00000000     0.00000000    12.47004070
PRIMCOORD
24 1
Ti      2.98748569     2.79919829     4.62629633     0.44372680    -0.46065753     2.55494833
Ti      5.25492925     1.92439730     7.84374489    -0.44372680     0.46065753    -2.55494833
Ti      7.10853730     1.92439897     1.60867450     0.44313802     0.46089638    -2.55727569
Ti      1.13387763     2.79919675    10.86136685    -0.44313802    -0.46089638     2.55727569
Ti      2.98747131     0.43740075     1.60872448     0.44400397    -0.46135712    -2.55545072
Ti      5.25494362     4.28619497    10.86131687    -0.44400397     0.46135712     2.55545072
Ti      1.13386326     0.43739889     7.84369491    -0.44357819    -0.46123551    -2.55491670
Ti      7.10855167     4.28619677     4.62634631     0.44357819     0.46123551     2.55491670
O       2.60877742     1.66325825     6.36336652     0.87026346     1.37273974    -2.12691091
O       5.63363751     3.06033728     6.10667470    -0.87026346    -1.37273974     2.12691091
O       1.51248420     1.66327728     0.12838604    -0.86898768     1.37158506    -2.12543381
O       6.72993080     3.06031831    12.34165479     0.86898768    -1.37158506     2.12543381
O       5.63362314     0.69853968     0.12834559    -0.86933015    -1.37131021    -2.12502681
O       2.60879179     4.02505591    12.34169524     0.86933015     1.37131021     2.12502681
O       6.72991642     0.69852065     6.36340697     0.86815233    -1.37190233    -2.12609510
O       1.51249838     4.02507495     6.10663418    -0.86815233     1.37190233     2.12609510
O       0.29948257     2.87315840     3.36846921    -2.30070469     0.75707215     0.23653438
O       7.94293237     1.85043719     9.10157201     2.30070469    -0.75707215    -0.23653438
O       4.42068560     1.85039302     2.86659101    -2.30239314    -0.75693099    -0.23411600
O       3.82172933     2.87320257     9.60344995     2.30239314     0.75693099     0.23411600
O       0.29946819     0.51136074     2.86655121    -2.30070752     0.75754935    -0.23460708
O       7.94294674     4.21223486     9.60348975     2.30070752    -0.75754935     0.23460708
O       3.82171496     0.51140491     9.10161175     2.30253841     0.75758071    -0.23712008
O       4.42069998     4.21219069     3.36842941    -2.30253841    -0.75758071     0.23712008
