# total energy = -19959.96724417 eV

CRYSTAL
PRIMVEC
        5.93400000     0.00000000     0.00000000
        0.00000000     9.29699974     0.00000000
        0.00000000     0.00000000     4.64899994
PRIMCOORD
24 1
Ti      4.40915300     6.81843098     2.13231999     0.76832510     0.91467080    -0.04211443
Ti      4.46869899     2.41825399     2.26015699    -0.87874065    -0.27183641    -0.49420349
Ti      1.49521001     6.99792600     2.39150403    -0.69440020     0.45426216    -0.55425497
Ti      1.43581600     2.27624901     2.47090898     1.07615234    -0.35362760    -0.85657413
Ti      2.97386301     4.67440098     4.58508301    -1.07806164    -0.23729080     1.45302350
Ti      2.98388499     0.15016902     0.12800798     0.50728347    -0.50521450    -1.35088998
Ti      0.01232501     4.59740299     4.50133499     1.07491152    -0.01572179     0.64155681
Ti      0.01163999     0.01128402     0.09433299    -0.72443018    -1.01726326    -1.03943646
O       4.59582398     5.50954000     0.74954502    -1.60420519     0.26214489     1.20405937
O       4.47321202     0.79372598     1.04356400     0.16340524     1.74899563     1.11786619
O       1.53172498     5.60441698     0.88763901     0.45268582    -0.59527000    -0.68410730
O       1.49114201     0.76457598     1.19235700    -0.93771715     0.14352469    -0.88209851
O       4.35667402     8.59794400     3.85860398     0.91176057    -1.35205135    -0.95335281
O       4.49924400     3.66766201     3.71346902    -0.28523880     0.86396374     0.21043022
O       1.45756402     8.54723797     3.68081899    -0.13444535    -0.85080175     0.09878696
O       1.57327598     3.75279297     3.75117999    -0.56062205     0.09202470    -0.11017721
O       3.01005302     5.91391000     3.10880098    -0.40709988     0.70669059     0.22102677
O       2.98668301     1.52442599     3.30555200    -0.19424383    -0.22211794     0.54604595
O       5.89561301     6.11182197     3.23217199     0.44805346    -0.34059570    -0.05737316
O       5.82029701     1.50592902     3.27125602     0.51065727    -0.31435656     0.71440648
O       2.98125699     7.85011601     1.40304601    -0.08714655    -0.63338970     0.59398187
O       2.80541298     3.22359001     1.44788701     1.67701166     0.15482109    -0.60458048
O       5.87372402     7.63792201     1.28410998     0.86018345     1.54705597     0.31263829
O       0.07534500     3.21358401     1.33234100    -0.86407816    -0.17861666     0.51534054
