# total energy = -19894.48958856 eV

CRYSTAL
PRIMVEC
        6.32347567     0.00000000     0.00000000
        0.00002117     3.24041385     0.00000000
        0.00000000     0.00000000     9.55376690
PRIMCOORD
24 1
Ti      2.29196844     1.92026631     3.54437938    -1.53717445     2.16391501    -3.95305021
Ti      4.03152854     1.32014769     6.00938762     1.53717445    -2.16391501     3.95305021
Ti      5.45359803     1.32014884     1.23246595    -1.53395800    -2.16406491     3.95673923
Ti      0.86989900     1.92026530     8.32130119     1.53395800     2.16406491    -3.95673923
Ti      2.29195790     0.30005943     1.23250426    -1.53803577     2.16461770     3.95335000
Ti      4.03153913     2.94035466     8.32126288     1.53803577    -2.16461770    -3.95335000
Ti      0.86988841     0.30005818     6.00934930     1.53442311     2.16384225     3.95699274
Ti      5.45360857     2.94035591     3.54441769    -1.53442311    -2.16384225    -3.95699274
O       2.00142750     1.14100485     4.87521413     7.07023781    -3.27864086     6.66508091
O       4.32206952     2.09940915     4.67855287    -7.07023781     3.27864086    -6.66508091
O       1.16036238     1.14101789     0.09836138    -7.06917029    -3.27999994     6.66562701
O       5.16313470     2.09939611     9.45540533     7.06917029     3.27999994    -6.66562701
O       4.32205894     0.47920222     0.09833039    -7.07090167     3.27924147     6.66472841
O       2.00143804     2.76121178     9.45543636     7.07090167    -3.27924147    -6.66472841
O       5.16312417     0.47918918     4.87524511     7.06969454     3.28053550     6.66561287
O       1.16037277     2.76122486     4.67852188    -7.06969454    -3.28053550    -6.66561287
O       0.22975946     1.97100343     2.58071078     5.03509989    -1.56141173     1.53685846
O       6.09373752     1.26941062     6.97305622    -5.03509989     1.56141173    -1.53685846
O       3.39150521     1.26938037     2.19620308     5.03794430     1.56187453    -1.53688186
O       2.93199177     1.97103367     7.35756377    -5.03794430    -1.56187453     1.53688186
O       0.22974893     0.35079645     2.19617258     5.03488726    -1.56081858    -1.53695205
O       6.09374810     2.88961755     7.35759428    -5.03488726     1.56081858     1.53695205
O       2.93198123     0.35082670     6.97308668    -5.03735346    -1.56103069    -1.53700347
O       3.39151579     2.88958730     2.58068027     5.03735346     1.56103069     1.53700347
