# total energy = -19072.52336319 eV

CRYSTAL
PRIMVEC
        5.93400000     0.00000000     0.00000000
        0.00000000     9.29699974     0.00000000
        0.00000000     0.00000000     4.64899994
PRIMCOORD
22 1
Ti      4.39797302     6.72875999     2.38647203    -0.49839285     0.08176265    -1.22187198
Ti      4.42475601     2.43994200     2.05575302     0.45716545    -0.97805829     2.20126082
Ti      1.45722598     7.21991501     2.65874801     1.15299467     0.75110230     0.54244358
Ti      1.62970998     2.45098201     2.03085100    -0.80343430     0.11602236     1.34847906
Ti      3.04156198     4.55088397     4.42851099    -1.33931333     1.02665241     1.51515397
Ti      3.00557999     0.19040999     0.13171502     1.12904998    -0.06567063    -1.43827204
Ti      5.79457698     4.48300900     4.28978501     1.18407238    -0.58485162     0.32116561
Ti      5.91324599     9.21282601     0.30191499    -1.31050797    -1.14376389     0.87423016
O       4.48243098     5.27011502     0.86206599    -0.01976073     0.84193041     1.64019628
O       4.40639800     0.69540902     1.31026399     0.91883856     0.26979855    -0.36687702
O       1.62576899     0.63540000     1.30784803    -1.71457909     1.58778817     0.19492954
O       4.40945299     8.42891198     3.99027301     0.95685748     1.16070850     0.24072399
O       4.26255101     4.15239699     3.23634402     1.51267774    -2.51449740    -1.80984081
O       1.50874599     8.41062298     4.14605301    -0.31734804    -0.60137071    -1.81318684
O       1.54370000     3.95007999     3.36071602    -0.95596505     0.05751534     0.01943986
O       3.04133797     6.26436203     3.57258701    -1.92991986    -0.33997555     0.08808268
O       2.98181802     1.64775000     3.25831102    -0.06518726    -0.65208523     0.98965603
O       5.78620302     6.25579301     3.53819398     2.35924051    -1.08208413     0.10944856
O       3.03561799     7.78830699     1.68844702    -1.28814476    -0.12525442    -0.65735033
O       3.09577999     2.91415398     0.97499802    -1.40750338     1.76300789    -1.41621943
O       5.88499401     7.88827101     1.72239300     0.44313854    -0.22026109    -0.81288439
O       5.86152198     2.83824398     0.99613802     1.53602156     0.65158489    -0.54870730
