# total energy = -19074.81873044 eV

CRYSTAL
PRIMVEC
        5.17600016     0.00000000     0.00000000
        0.00000000     5.50899976     0.00000000
        0.00000000     0.00000000     9.26300011
PRIMCOORD
22 1
Ti      1.86271498     3.40826398     3.26472401     0.02070767    -0.40246804     0.00868005
Ti      3.61206998     2.28808099     5.95601102    -0.86469959     0.02692614    -0.18501202
Ti      4.44887400     2.25388799     1.21602403    -0.28828659    -0.16013171    -1.20978548
Ti      0.70932199     3.23194201     8.07692598     0.39461640     0.45544770     1.17187943
Ti      1.74940400     0.45455199     1.28822201     0.48820331     0.94536850    -1.87279944
Ti      3.25463001     4.97848502     8.05695499    -0.18015752     0.34867514     1.18299483
Ti      0.62119800     0.23175799     5.97198599     1.22398517     0.62515420    -0.48155854
Ti      4.39612000     5.08385902     3.44033900     0.10591792    -0.47856989     0.55006484
O       3.42417702     3.44887097     4.43834300    -0.35747526     0.11503865     1.19812063
O       0.97296302     1.94366100     0.11190199    -1.05456406    -0.02883108     0.85899252
O       4.26191901     3.84934501     9.14335101     0.39635807    -1.83845129    -0.06641470
O       3.56159002     0.77078799     0.18943699    -0.74924699     0.80066779    -0.87113815
O       1.52714998     4.74829699     9.06588401     0.38850926     0.83751763    -0.02231076
O       4.60815699     1.06689002     4.71305600    -1.24916913    -0.18253682     0.10388058
O       0.92098199     4.87802299     4.28946501     1.01364083    -1.52880010     1.62488047
O       0.14116200     3.57512499     2.43847898    -0.25342885    -1.31610269    -0.31807977
O       0.01159703     1.87277099     6.88975502    -0.07950368     0.07780110     0.05223789
O       2.63683399     1.98727097     2.17985001     0.34302874     0.15803677     0.70173145
O       2.43522798     3.36874698     7.28215303     0.09851905    -0.54159563    -1.78430538
O       0.03744098     0.64108300     2.15791302     0.54893304     0.83618348    -0.50631776
O       2.45591903     0.70904603     6.33117700    -0.09288474    -0.06417244     0.67543959
O       2.75494301     4.66643099     2.36552698     0.14699671     1.31484182    -0.81118026
