# total energy = -19960.49041850 eV

CRYSTAL
PRIMVEC
        5.93400000     0.00000000     0.00000000
        0.00000000     9.29699974     0.00000000
        0.00000000     0.00000000     4.64899994
PRIMCOORD
24 1
Ti      4.44408500     6.93462201     2.33163302    -0.03613198     1.35533465    -0.56011735
Ti      4.45846100     2.34340298     2.33023800    -0.55682659    -1.64634790    -0.11611878
Ti      1.46034199     6.98382300     2.34855499     0.23683854     0.63166989    -0.99178130
Ti      1.49592699     2.41525599     2.34704102     0.77726971    -1.79805178    -0.17588872
Ti      2.97073499     4.69424899     4.57142103     0.04005549    -1.21235735     0.82976215
Ti      2.94170999     9.20737500     4.64547700     1.34332245     2.51209985     0.23248463
Ti      5.92349700     4.67211801     4.61991398    -0.10906341    -1.05483352     0.66060921
Ti      0.03979799     0.01452502     0.02361898    -0.97140324     2.00704424     0.49292231
O       4.42350302     5.63122701     0.73772701     0.29074380     0.33921425     0.97397743
O       4.36610401     0.87863802     0.85786702     1.27360028     0.90135711     0.90203126
O       1.51936499     5.59349201     0.90783802    -0.35345765     0.01547445    -0.43499816
O       1.54597398     0.88459201     0.93687303    -0.93636604     0.29313775    -0.22475692
O       4.49792503     8.43627601     3.83020700    -0.13394964    -1.98372072    -1.88794375
O       4.48017298     3.67229802     3.81373901     0.01062329     0.48175446     0.20584594
O       1.48690700     8.38831700     3.86786400    -0.91369790    -2.31615369    -2.15679228
O       1.50862602     3.63976299     3.84807901    -0.32623095     1.26537455     0.21279512
O       2.96762602     5.94793298     3.06430099    -0.39943028     0.36077939     0.58627447
O       2.86846402     1.37555700     3.23317298     0.77088823     0.43563965    -0.33603199
O       5.85487800     5.95335201     3.17914801     0.81677190     0.76241027    -0.41904600
O       0.07090203     1.42509201     3.15516300    -0.50358622    -0.77388408     0.97895663
O       2.95170900     7.96894900     1.47768000    -0.35518286    -1.78290258     1.29537599
O       3.07058301     3.28164001     1.46621300    -0.64100942     0.51032406    -0.28932300
O       5.86998199     7.85171999     1.36561302     0.67998685    -0.78552733     1.47847485
O       5.91451400     3.21778498     1.50515499    -0.00376461     1.48216387    -1.25671173
