# total energy = -4962.83443484 eV

CRYSTAL
PRIMVEC
        5.49364770     0.00000000     0.00000000
       -0.00000759     2.64508947     0.00000000
       -2.74685463    -1.32261863     5.91842682
PRIMCOORD
6 1
Ti     -0.00023470     1.98390481     1.47960639    -0.01422026    -0.01661859    27.25656500
Ti      2.74702012    -0.66143414     4.43881969     0.01422026     0.01661859   -27.25656500
O       0.00005846     0.66125968     0.96406323     0.01270794     0.01593596   -21.07686972
O       2.74672680     0.66121087     4.95436292    -0.01270794    -0.01593596    21.07686972
O      -0.00002244    -0.66128976     3.92327653    -0.00173112    -0.00045791    -1.84744012
O       2.74680764     1.98376031     1.99514962     0.00173112     0.00045791     1.84744012
