# total energy = -19958.48571848 eV

CRYSTAL
PRIMVEC
        7.60600008     0.00000000     0.00000000
        0.00000000     7.60600008     0.00000000
       -1.89786986    -1.89786986     4.85670466
PRIMCOORD
24 1
Ti      3.74937698     6.69276800     1.21785302     0.86803663     1.47907932     1.56448549
Ti      3.67735098     2.87108102     1.18502302     0.04491102    -0.98081297     0.11440822
Ti      0.19577701     6.69513099     1.20291900    -1.22598549     1.38941027     1.56119062
Ti     -0.11298501     2.75389403     1.18538302     0.11655689     0.33222368     1.42774363
Ti      5.71522125     2.84752125     3.74900782     1.15287897    -1.59923807    -1.65431549
Ti      5.77443422    -1.06415677     3.52155881    -0.25467969     2.41864587     0.21815844
Ti      1.92666621     2.76813720     3.71788082    -1.35844106     0.50936581    -2.57396164
Ti      1.92782722    -1.01894477     3.75478279    -0.25416007    -0.46142217    -0.82297623
O       3.96778399     4.99498302     0.72233901    -0.65247192    -3.26907558    -0.03066479
O       3.85300999     0.98008802     0.75491500     0.02366727    -0.74254695     0.95092774
O       0.09750398     4.70939600     0.87393797    -0.12493895     3.46420078    -0.06401047
O      -0.22212601     0.99702799     0.67789098     0.74768865    -3.56697810    -0.55771465
O       5.84095720     4.78033020     3.85102282     0.67092525    -0.80800109     1.66170433
O       5.81489623     1.04747721     4.20684880    -1.27358588    -0.45541016    -2.15713964
O       1.57623524     4.74690324     3.75568879     0.34217076     0.38916669     1.39991040
O       1.82653423     0.89695523     4.07273280     1.06169991     2.71949667     0.95017081
O       3.75805824     3.07902820     3.06497982    -0.12459082    -0.41145122     1.42345451
O       3.75970022    -1.11386779     3.30603281     1.25567557     0.29448372    -0.93542321
O       0.00985725     2.63298925     3.27347380    -0.94083590     0.98217488     0.09954004
O       0.05844122    -0.47292476     3.23495282    -1.54230226    -2.40610145    -1.51264586
O       5.66351603     6.71010400     1.61370602     0.77066532    -0.08398100     0.24225046
O       5.65178300     2.72991102     1.54045403    -0.85468797     0.75308179     0.89142339
O       1.99000597    -0.55516298     1.85534100    -1.32900603    -0.86335748    -2.85235668
O       1.74540501     2.54452902     1.54246199     2.88080980     0.91704727     0.65584007
