# total energy = -4807.88755324 eV

CRYSTAL
PRIMVEC
        5.13425009     0.00000000     0.00000000
       -0.00000635     1.71141670     0.00000000
       -2.56715772    -0.85581971     5.82439586
PRIMCOORD
6 1
Ti     -0.00021973     1.28360333     1.45609861    -0.10165657    -0.06452057   191.42475142
Ti      2.56730561    -0.42800640     4.36829639     0.10165657     0.06452057  -191.42475142
O       0.00005421     0.42783562     0.94874634     0.10170568     0.06422849  -184.91322199
O       2.56703153     0.42776127     4.87564871    -0.10170568    -0.06422849   184.91322199
O      -0.00002355    -0.42790750     3.86094412    -0.00083407     0.00177843     0.06886034
O       2.56710919     1.28350434     1.96345093     0.00083407    -0.00177843    -0.06886034
