# total energy = -19071.69270566 eV

CRYSTAL
PRIMVEC
        5.17600016     0.00000000     0.00000000
        0.00000000     5.50899976     0.00000000
        0.00000000     0.00000000     9.26300011
PRIMCOORD
22 1
Ti      2.00015798     3.28647902     3.24906201    -4.08176379     5.70746727     2.44363854
Ti      3.65191898     2.19919800     6.00891197    -1.35208503     3.17184645     1.87227930
Ti      4.52766500     2.45884098     1.62970802    -0.30128198    -3.35771131    -3.47894709
Ti      1.10998998     2.26201398     7.70615101    -1.31125693     0.09220056     1.30728097
Ti      1.86940002     0.79966001     1.30669601    -0.03561365    -0.46901670    -2.04641273
Ti      3.04988800     5.34490602     8.07487298     1.04624449     0.30908502     0.03114841
Ti      0.47795300     5.37725399     6.08854199     0.59328793    -1.44254522     0.03420314
Ti      4.29822999     5.22079300     3.36350198     1.18150487     0.29584564     1.96963750
O       3.26142200     3.46964002     4.41913699     1.78073283     0.17914759     2.66967305
O       0.77158499     2.56896700     0.42251099     0.37648626    -0.50246985    -1.34371352
O       5.05431098     3.58220401     6.93620800    -0.88234097    -0.08424248    -0.81967108
O       3.60503700     0.66888899     0.45753501    -0.02627411    -0.16992196    -0.58302048
O       1.43895698     0.31955601     8.71789700    -1.21993080     0.17074600     0.41907660
O       4.21374700     1.00152600     4.92429901     1.64350837    -2.83154771    -3.10846308
O       1.01118300     4.73961800     4.52402902    -1.43805376    -0.24283744    -0.50245262
O       5.16010600     3.76761698     2.47532300     2.08399867     2.20299631     1.85764818
O       4.48879598     0.92764999     7.26735099    -0.02452499     0.44691806     1.19910871
O       2.78989200     2.03334898     2.47976100     1.73099533    -3.51822662    -2.29217634
O       2.29134898     3.60258501     7.33365600     1.83781417     0.30562766     0.13003462
O       0.18155299     0.99011302     2.41714801     0.77999920    -0.59200906     0.59751020
O       2.03580600     0.99191698     6.35156599    -0.39003984     0.51177339     0.67650094
O       2.80839600     4.82178500     2.40236401    -1.99140601    -0.18312586    -1.03288349
