# total energy = -19932.45142330 eV

CRYSTAL
PRIMVEC
        5.74508538     0.00000000     0.00000000
        0.00002261     4.07633872     0.00000000
        0.00000000     0.00000000     8.92572881
PRIMCOORD
24 1
Ti      2.08233062     2.41563453     3.31138173    -0.62495879     2.73672179    -4.67474396
Ti      3.66277747     1.66070418     5.61434719     0.62495879    -2.73672179     4.67474396
Ti      4.95477427     1.66070560     1.15144705    -0.62113916    -2.73762476     4.68318696
Ti      0.79033382     2.41563331     7.77428192     0.62113916     2.73762476    -4.68318696
Ti      2.08231931     0.37746527     1.15148283    -0.62438698     2.73694573     4.67986843
Ti      3.66278877     3.69887359     7.77424613     0.62438698    -2.73694573    -4.67986843
Ti      0.79032251     0.37746375     5.61431135     0.62136953     2.73727920     4.67801801
Ti      4.95478557     3.69887511     3.31141751    -0.62136953    -2.73727920    -4.67801801
O       1.81836380     1.43534818     4.55473111     1.88863924    -2.94758935     3.92169688
O       3.92674428     2.64099059     4.37099780    -1.88863924     2.94758935    -3.92169688
O       1.05422852     1.43536461     0.09189538    -1.88889301    -2.94910810     3.92324520
O       4.69087967     2.64097416     8.83383323     1.88889301     2.94910810    -3.92324520
O       3.92673303     0.60282118     0.09186641    -1.88828160     2.94772459     3.92206660
O       1.81837506     3.47351754     8.83386221     1.88828160    -2.94772459    -3.92206660
O       4.69086836     0.60280480     4.55476004     1.88870994     2.94913201     3.92284873
O       1.05423967     3.47353401     4.37096883    -1.88870994    -2.94913201    -3.92284873
O       0.20874611     2.47946028     2.41106205     2.68255376    -0.78768680     1.85667090
O       5.53636198     1.59687848     6.51466687    -2.68255376     0.78768680    -1.85667090
O       3.08129522     1.59684047     2.05183080     2.68492047     0.78848281    -1.85680820
O       2.66381287     2.47949829     6.87389796    -2.68492047    -0.78848281     1.85680820
O       0.20873480     0.44129087     2.05180226     2.68267024    -0.78813263    -1.85711210
O       5.53637329     3.63504784     6.87392645    -2.68267024     0.78813263     1.85711210
O       2.66380161     0.44132889     6.51469531    -2.68493204    -0.78834397    -1.85686090
O       3.08130648     3.63500988     2.41103356     2.68493204     0.78834397     1.85686090
