# total energy = -19517.65601245 eV

CRYSTAL
PRIMVEC
        7.60600008     0.00000000     0.00000000
        0.00000000     7.60600008     0.00000000
       -1.89786986    -1.89786986     4.85670466
PRIMCOORD
23 1
Ti      3.82292399     6.50609601     1.23814501    -1.30465408     0.91400077     0.47317032
Ti      3.82838102     2.81350902     1.08942303     0.10002881    -0.29231654     1.93849269
Ti     -0.06097699     6.68486299     1.30040801     1.05024615    -0.98425028    -1.34570252
Ti      0.05243702     2.91786399     1.10420400    -0.15342421     0.90783012     0.43374166
Ti      5.68770324     2.93881623     3.57120183    -1.88854334     0.02937975     1.32354063
Ti      5.60800322    -0.92661979     3.65167683    -0.10265287     0.10959820     0.72770808
Ti      1.84997223     2.85476722     3.62927983     2.58080823    -0.01581280    -1.10071255
Ti      1.81849322    -1.11046978     3.70743682     0.87937211     1.04783163    -0.38261140
O       4.04515298     4.74192098     0.62101803    -0.61022199    -0.75172322     1.67620227
O       3.76269399     0.88177398     0.83362001    -0.31229736     0.94342243     0.07330963
O      -0.20542301     4.71697499     0.83237899     0.29273383     1.74208399     0.77676835
O      -0.11243302     0.99390399     0.72920202     0.35624036    -0.92713629     0.21766839
O      -1.59050980     4.66576423     4.19072181    -0.40135887     1.56943718    -0.58614386
O       5.64167323     1.07315125     4.08094981     0.75875236    -2.04707762    -1.67685791
O       2.00118723     4.73693222     4.15118179    -0.97653902    -0.78510464    -1.09805069
O       2.11049122     0.86665523     4.09746681    -1.01192256     0.72946440    -0.95824922
O       3.83014922     3.09189224     3.31055082    -0.30903283    -0.75793347    -1.35309213
O       3.71546624    -1.03297177     3.26068581     1.89917408    -0.29055739    -0.09145186
O       0.00698625    -1.03361975     3.27853982    -0.69419065     0.61314071    -0.54057593
O       5.65508602     6.82894499     1.62184000     0.89473935    -0.50835048     0.93229341
O       5.80164002     2.92168999     1.75367700    -0.11266938    -0.52600188    -0.98808251
O       1.94650099     6.46142499     1.53756498    -1.04435061     0.32053338     1.01587229
O       1.91849301     3.15153300     1.55894200     0.10976275    -1.04045873     0.53276285
