# total energy = -19948.23249518 eV

CRYSTAL
PRIMVEC
        6.24195763     0.00000000     0.00000000
        0.00002457     4.42888693     0.00000000
        0.00000000     0.00000000     9.69768374
PRIMCOORD
24 1
Ti      2.26242408     2.62455428     3.59777150     0.11749509     1.12647759    -1.44112751
Ti      3.97955822     1.80433265     6.09991235    -0.11749509    -1.12647759     1.44112751
Ti      5.38329529     1.80433420     1.25103165     0.11921233    -1.12659612     1.44222254
Ti      0.85868701     2.62455295     8.44665224    -0.11921233     1.12659612    -1.44222254
Ti      2.26241179     0.41011092     1.25107053     0.11749509     1.12647759     1.44112751
Ti      3.97957051     4.01877617     8.44661337    -0.11749509    -1.12647759    -1.44112751
Ti      0.85867473     0.41010927     6.09987342    -0.11921233     1.12659612     1.44222254
Ti      5.38330757     4.01877782     3.59781037     0.11921233    -1.12659612    -1.44222254
O       1.97562770     1.55948640     4.94865380     1.32731836    -0.66938027     1.12131404
O       4.26635460     2.86940059     4.74903005    -1.32731836     0.66938027    -1.12131404
O       1.14540504     1.55950425     0.09984309    -1.32721089    -0.66998037     1.12135775
O       5.09657737     2.86938274     9.59784043     1.32721089     0.66998037    -1.12135775
O       4.26634237     0.65495707     0.09981161    -1.32731836     0.66938027     1.12131404
O       1.97563993     3.77392986     9.59787192     1.32731836    -0.66938027    -1.12131404
O       5.09656509     0.65493927     4.94868523     1.32721089     0.66998037     1.12135775
O       1.14541716     3.77394777     4.74899856    -1.32721089    -0.66998037    -1.12135775
O       0.22679982     2.69390009     2.61958633     0.01346333    -0.03266999     1.05588715
O       6.01518248     1.73498689     7.07809751    -0.01346333     0.03266999    -1.05588715
O       3.34778562     1.73494560     2.22928644     0.01410611     0.03297338    -1.05573417
O       2.89419668     2.69394139     7.46839725    -0.01410611    -0.03297338     1.05573417
O       0.22678754     0.47945657     2.22925543     0.01346333    -0.03266999    -1.05588715
O       6.01519476     3.94943036     7.46842820    -0.01346333     0.03266999     1.05588715
O       2.89418445     0.47949787     7.07812841    -0.01410611    -0.03297338    -1.05573417
O       3.34779785     3.94938912     2.61955538     0.01410611     0.03297338     1.05573417
