# total energy = -19071.43225654 eV

CRYSTAL
PRIMVEC
        5.17600016     0.00000000     0.00000000
        0.00000000     5.50899976     0.00000000
        0.00000000     0.00000000     9.26300011
PRIMCOORD
22 1
Ti      1.91676297     3.45635301     3.32720498     2.00158476     0.60147021    -1.22904047
Ti      3.44412198     2.30172498     6.01279899    -0.10936654     2.04036241    -2.29572215
Ti      4.53347499     2.25313799     1.26194301    -0.83010873    -0.17465305     1.27920323
Ti      0.75381199     2.54618201     7.88538800     1.08846561    -0.22978266    -3.13826860
Ti      1.79009397     0.77377599     1.41827203     3.67309836    -0.31525567    -1.26257796
Ti      2.85909600     5.35600398     8.08063398     0.02800164     0.65281928     0.04772175
Ti      0.51189400     5.25904998     6.24424001    -0.44784314     1.39995873    -1.98619284
Ti      4.51435799     5.02753599     3.34406499    -1.76559417    -1.58207518     0.66060252
O       3.86259799     3.45580902     4.32702400    -0.61830143    -0.04948064     1.69586556
O       1.09638800     2.36631000     0.30049103     0.86620626    -0.12606972     1.63024764
O       4.80786499     3.80213600     6.96358499     1.23569861     1.13355867     0.35768018
O       3.64092601     1.01005300     0.13175402    -0.72074733    -0.60215207    -0.13964926
O       1.28363002     0.01416798     8.98796499     0.50704076    -1.63631468    -0.83618476
O       4.37971900     0.43910102     5.08420399    -0.20382659     0.03775975    -1.56616956
O       1.39265900     4.64255801     4.68453801    -1.10072155    -0.25299536    -0.19614825
O       0.15301800     3.74313602     2.01075898     0.84208699     1.67112691     2.41381451
O       4.54649699     1.41360003     7.08256298     1.81648969    -1.85354624     2.51948509
O       3.05009602     2.07804699     2.63186702    -1.60257331    -1.32203757    -2.06126857
O       2.56327898     3.49297001     7.19611801    -2.58729333     1.47450790     1.25736067
O       0.37467300     1.04979098     2.42517901    -1.76457729    -0.45739377     1.72161106
O       1.91911702     1.17293402     6.73124898     0.04126854    -1.25223106     0.12456460
O       2.84506402     4.73114598     2.13138499    -0.34898805     0.84242329     1.00306485
