# total energy = -4978.10098820 eV

CRYSTAL
PRIMVEC
        4.40571708     0.00000000     0.00000000
        0.00000000     2.30103285     0.00000000
        0.00000000    -0.00012137     6.13608671
PRIMCOORD
6 1
Ti      2.20285833     1.15045569     3.06804336     0.00000000     0.00000000     0.00000000
Ti      0.00000000     0.00000000     0.00000000     0.00000000     0.00000000     0.00000000
O       2.20285833     0.44841375     1.19583294     0.00000000    -0.41578842     1.15891695
O       2.20285833     1.85249767     4.94025382     0.00000000     0.41578842    -1.15891695
O       0.00000000     0.70199427     4.26387754     0.00000000     0.41573031     1.15916044
O       0.00000000     1.59891716     1.87220917     0.00000000    -0.41573031    -1.15916044
