# total energy = -4988.38858535 eV

CRYSTAL
PRIMVEC
        2.82638789     0.00000000     0.00000000
        0.66056369     4.37898378     0.00000000
       -0.00000415    -0.00005749     4.44110422
PRIMCOORD
6 1
Ti      1.74347346     2.18946306     2.22055206     0.00000000     0.00000000     0.00000000
Ti      0.00000000     0.00000000     0.00000000     0.00000000     0.00000000     0.00000000
O       1.54192714     0.85338819     0.86550577    -1.98052716     1.04229758     1.09239323
O       1.94501977     3.52553794     3.57559830     1.98052716    -1.04229758    -1.09239323
O       0.20154451     1.33605159     3.08605878     1.98053050    -1.04282903     1.09287146
O       0.45901462     3.04287463     1.35504529    -1.98053050     1.04282903    -1.09287146
