# total energy = -4987.05910034 eV

CRYSTAL
PRIMVEC
        3.64575575     0.00000000     0.00000000
        1.40220727     3.36531570     0.00000000
       -2.52401535    -1.68268041     4.75254520
PRIMCOORD
6 1
Ti      1.05155690     2.52411633     1.18813605     0.00074356    -0.00074356     0.00000000
Ti      1.47239087    -0.84148102     3.56440850    -0.00074356     0.00074356     0.00000000
O       0.35058972     0.84132452     0.77415066     0.00016686     0.00039158    -1.51710184
O       2.17335788     0.84131073     3.97839394    -0.00016686    -0.00039158     1.51710184
O      -0.35055823    -0.84130352     3.15042316     0.00039158     0.00016686    -1.51710184
O       2.87450577     2.52393873     1.60212149    -0.00039158    -0.00016686     1.51710184
