# total energy = -19073.55901123 eV

CRYSTAL
PRIMVEC
        7.60600008     0.00000000     0.00000000
        0.00000000     7.60600008     0.00000000
       -1.89786986    -1.89786986     4.85670466
PRIMCOORD
22 1
Ti      3.78481598     6.64302603     0.94126498    -0.58795700    -0.90732644     2.34393087
Ti      3.93506199     2.86919201     1.22307600    -0.48964775     0.97268468    -0.86091107
Ti      0.01772601     6.55921700     1.31933302     0.67967420    -0.03344364    -0.70407861
Ti      0.07524398     2.90349000     0.99954402     0.26855028    -0.87401213     0.35252691
Ti      5.76117521     3.00098620     3.54275379     0.38087771    -1.56419598     0.87871880
Ti      5.97684124    -1.04746276     3.83737783    -1.54493507     1.14564517    -1.20003482
Ti      2.05923024     2.67222922     3.42780083    -1.63783060    -0.72418438     1.20093316
Ti      1.36196921    -0.74994979     3.96141481     0.04239288    -0.85330318    -1.46067741
O       3.89605602     4.72220998     0.53999501     0.01421152     1.24738685    -0.61551693
O       3.54923097     1.03791302     1.10502899    -0.15942722    -1.23072352    -1.20785998
O      -0.10193002     4.69881098     0.77374001     0.17757228     0.91902600     0.08724733
O      -0.11082199     0.95061698     0.81879199     0.48706919    -0.05933491     1.30963353
O       5.19004320     4.76907222     4.31620482     1.50904477    -0.33326857    -1.49849630
O       5.51957320     0.86360521     3.77494380     1.16402034     0.12808778     2.53747279
O       1.91213924     5.13010721     4.00357679     0.35144139    -1.94331171     0.25095390
O       2.35523120     0.75094522     4.10429383    -0.18287852     1.22421297    -0.99779177
O       3.86925123     2.81792823     3.11990979    -0.14080703     0.39322235     1.28825480
O       0.05981322     2.52545524     3.23328580     0.23770860     1.35942271    -0.53728054
O       5.38274701     6.53069900     2.04095299     0.43074299    -0.18141993    -1.00354410
O       5.70972701     3.03777301     1.66282499     2.12842401     0.04315187    -0.36184485
O       1.97604702     6.36847500     1.76227798    -1.05650448     1.47061910    -0.13922914
O       2.03420201     3.10504801     1.50548800    -2.07174222    -0.19893532     0.33759291
