# total energy = -19958.36866241 eV

CRYSTAL
PRIMVEC
        7.60600008     0.00000000     0.00000000
        0.00000000     7.60600008     0.00000000
       -1.89786986    -1.89786986     4.85670466
PRIMCOORD
24 1
Ti      3.90981002     6.64226301     1.06471299    -1.15931187    -0.56604863     0.57623457
Ti      3.89637501     2.62046198     1.19438401    -1.68681091     0.26292291     0.99020187
Ti     -0.05401302     6.72464902     1.20721698     0.65536724     1.79435865     0.71511687
Ti     -0.11250499     2.92759900     1.34147401     0.03662666    -2.10593019    -1.60019838
Ti      5.60130521     2.92613424     3.79781982    -1.48280305    -0.72248668    -1.60386992
Ti      5.66302622    -0.83594278     3.68831982     0.74915160     1.03747933    -0.84650003
Ti      1.79778922     2.74863120     3.68404581     1.33616707     0.02169163     0.03898719
Ti      2.04242622    -0.97700879     3.56286883    -0.39658947    -0.29365351    -0.75780363
O       3.82363399     4.75880502     0.77711399     0.00229163    -0.64865332    -0.20274647
O       4.28777202     0.82458399     0.63679402    -1.37749834     0.51057885     0.08311531
O       7.29647002     4.85194302     0.71665401     0.89687748    -0.25566134     2.54185961
O       7.30089802     1.12055997     0.68669199     1.30820631    -1.17258391     1.76195451
O       5.65154720     4.97572123     4.06552683     0.23065041    -2.75445315     0.40053354
O       5.41928220     1.02699323     4.09086379     1.50270288     1.20889047     0.46047806
O       2.09366725     4.74002923     3.86444181    -0.79692452    -1.00741336     0.21349549
O       2.05517823     0.82834824     4.21395984    -0.92787702     1.79704725    -1.77124648
O       3.81069322     2.86608320     3.17819882     0.54900940     0.27753783    -0.02012969
O       3.87711825    -0.77387278     3.10215679    -0.60886805    -0.57368198    -0.78347739
O      -0.14160778     2.69508322     3.51449583     0.98399497     0.94335507    -2.01176941
O       0.11296924    -0.89759177     3.35718583    -0.40760279     0.16931055    -1.77349491
O       5.74715598     6.78104201     1.61364400     1.51076252    -0.79905314     0.47610009
O       5.67160598     2.70187299     1.33943298     1.83161523     1.71572760     2.59701107
O       2.01914602     6.80623101     1.38500001    -1.25270157    -0.33036117     0.92132379
O       1.90551103     2.31574902     1.78537001    -1.49643582     1.49108046    -0.40517541
