# total energy = -19075.84456986 eV

CRYSTAL
PRIMVEC
        7.60600008     0.00000000     0.00000000
        0.00000000     7.60600008     0.00000000
       -1.89786986    -1.89786986     4.85670466
PRIMCOORD
22 1
Ti      3.83413498     6.63119500     1.12735599     0.45392766     1.08689364     0.03137338
Ti      3.75838098     2.86256502     1.25744199     0.61722645    -0.17188294     0.06523920
Ti      0.01500800     6.62160699     1.10974200    -0.63176579    -0.45790979    -0.29184243
Ti     -0.00650301     2.81634599     1.17745198    -0.47270212     0.93292898    -0.06461133
Ti      5.74794424     2.76936320     3.51115683    -0.79806120     0.85344227     0.28925024
Ti      6.05434523    -0.85762577     3.73215083    -0.37081775    -1.48032528    -0.30326713
Ti      1.91277922     2.83488725     3.65933583     0.50528521     0.24497737    -1.06138880
Ti      1.43583722    -0.98906578     3.72850982     1.16292607     0.98624520     0.23704423
O       3.81422998     4.81674601     1.01099499    -0.43326164     0.12945535    -1.11977961
O       3.94385501     1.06821799     0.70864502    -0.86696397    -1.11915020     0.79615370
O      -0.06753799     4.66394201     0.84208500     0.47904246     1.38919429    -0.82886843
O      -0.09088201     1.01449698     0.84889699     0.43761246    -1.95906486    -0.99955992
O       5.70647723     4.70437422     4.04158580     0.49203939     1.00020141    -0.02852049
O       5.51567824     0.93522522     3.78812482     0.82867714    -0.62327626     1.30330707
O       2.15393720     4.84429424     4.05528080    -1.30187008    -0.32117847     0.37863699
O       2.01778820     1.09572023     4.09178180    -0.90613705    -1.31635286    -0.03205447
O       3.78930922     2.86995524     3.24419379    -0.11729300     0.17694441    -0.48620967
O      -0.00360375     2.74499025     3.06708483     0.66662996     0.37303327     1.97442130
O       5.66857200     6.60333202     1.88396499     0.18728257     0.18744583    -0.63582762
O       5.72718901     2.77826698     1.56352398    -1.00703180     0.56008624     0.67853212
O       1.84009001     6.79626898     1.87056501     0.34323366    -0.48744457    -0.27434452
O       1.88483300     2.85588902     1.59326099     0.73202085     0.01573747     0.37231644
