# total energy = -19075.47378031 eV

CRYSTAL
PRIMVEC
        7.60600008     0.00000000     0.00000000
        0.00000000     7.60600008     0.00000000
       -1.89786986    -1.89786986     4.85670466
PRIMCOORD
22 1
Ti      3.65217802     6.88533899     1.26503902     1.50992666    -1.40752267    -1.94048658
Ti      3.80945701     2.92906403     1.07962197     0.68526018     1.77829722     1.30468364
Ti     -0.06206900     6.52211500     1.08215700    -0.30981290    -0.25437013     0.35006251
Ti     -0.00330000     2.67912102     1.23014898    -0.31784220     0.68564739    -0.62376708
Ti      5.66378321     2.73700121     3.58097679    -0.53553836    -0.40496792     0.18523237
Ti      6.15131124    -1.08590580     3.69743982    -0.78179871     0.57742525    -0.15033091
Ti      1.90328324     2.93410825     3.61495283     1.04732332    -0.17702437     1.00876756
Ti      1.59923223    -0.88949579     3.73401179     0.36716241     0.17249717    -0.36791934
O       3.86944602     4.85816403     0.79257798    -0.60086883     0.54851061    -0.86280958
O       4.09691699     1.08625902     0.78795599    -1.00517264    -1.07625775     0.30180520
O      -0.15406699     4.64385999     0.86716202     0.46705135     0.98353371    -0.10616732
O       7.31309698     0.82811101     0.58225600     0.24289581    -0.40977435     2.31582253
O       5.79738422     4.62067325     4.00751382     0.83331696     0.40883692    -0.18449035
O       5.60955222     0.81724923     4.13899383     0.70735625     0.66810500    -0.94051914
O       2.01354420     4.89024524     4.12669083    -0.83424512     0.25783161    -0.47107204
O       2.19730222     1.04814223     4.03507184    -0.67900906    -0.75199833    -0.74296090
O       3.80951924     2.99313024     3.10072981    -0.08253861    -0.41295326     0.85153066
O       0.08273522     2.56454821     3.29371779    -0.23490610     0.49699571    -0.83617011
O       5.41005700     6.63836599     2.00197702     1.29420151     0.09430090     0.07534184
O       5.72791102     2.98936600     1.71358902     1.05020733    -0.89400170    -0.25029287
O       1.86695300     6.81409099     1.78012401    -1.01475283    -0.34449427     0.30982602
O       1.97942502     2.93346302     1.43786598    -1.80821664    -0.53861752     0.77391417
