# total energy = -19073.74022879 eV

CRYSTAL
PRIMVEC
        5.17600016     0.00000000     0.00000000
        0.00000000     5.50899976     0.00000000
        0.00000000     0.00000000     9.26300011
PRIMCOORD
22 1
Ti      1.77497099     3.49611200     3.31047699     1.52503164    -0.39640820    -1.17130633
Ti      3.40772898     2.14692798     5.90221402    -0.02156334     0.24221215    -1.01247843
Ti      4.59069699     2.33047798     1.31112501    -1.50867042    -0.75216828    -0.30291129
Ti      0.75771901     3.04898099     8.04366999    -0.74772978     1.38981084    -0.05399267
Ti      1.94032200     0.53520098     1.19029500    -0.03696682     0.26700813    -0.24728725
Ti      3.27630802     4.98124298     8.08367399     0.59207977    -0.80503738     1.93328672
Ti      0.92745600     0.18284302     6.08801900    -0.09539156     0.36482862    -0.00223300
Ti      4.21033698     5.07658199     3.50655299     0.14987223     0.93146705     0.50944783
O       3.41566701     3.50860302     4.45983501     0.30651083    -0.17346597     0.95366931
O       1.01641302     1.82281099     0.00754702    -0.23846991    -0.63415897     1.11258797
O       4.35081798     3.57789000     9.04329598    -0.19269448     0.11681632    -1.26544448
O       3.52339501     0.75932601     0.20937702     1.02381340     0.43699951    -0.55019648
O       1.74939897     4.72264702     9.06116301    -1.61454180    -0.74115779     0.60687107
O       3.18132203     0.83724800     4.51536200     1.58771207     0.06681914     0.54552633
O       0.88169598     4.86899798     4.39053898    -0.99432438    -0.25769637     0.97397640
O       0.32072401     3.72307099     2.07272400    -0.31068091    -0.29882143     1.69521945
O       0.09373798     1.93856201     6.53341902    -0.98653368    -0.76234420    -0.60695901
O       2.85843199     2.31095801     2.13381301    -0.27377837    -1.33179336    -0.35629307
O       2.25949801     3.49128099     7.05976200     1.50300062     0.26634170    -1.92092331
O       0.18568697     0.84779900     2.26490303     0.24551525     0.29709005     0.32631476
O       2.39961700     0.81133303     7.04746302     0.75709657     0.49216306    -1.21705733
O       2.82191299     4.70212902     2.30391000    -0.66928720     1.28149511     0.05018281
