# total energy = -19071.88724496 eV

CRYSTAL
PRIMVEC
        5.17600016     0.00000000     0.00000000
        0.00000000     5.50899976     0.00000000
        0.00000000     0.00000000     9.26300011
PRIMCOORD
22 1
Ti      1.82533199     3.16118101     3.15846099     0.10315835     1.31487113     2.70488020
Ti      3.44151102     2.25336902     5.99905901    -0.26587299     0.13212441    -0.02717014
Ti      4.55337100     2.22783400     1.31266899    -1.83557859    -0.64654630    -2.99246257
Ti      0.59683198     3.39609602     8.02235399     1.97863071     0.52093166     1.16016445
Ti      1.86078899     0.61848602     1.35352100    -0.33912683    -2.24291939    -3.38111478
Ti      3.37056798     5.08660201     7.99600700    -1.76273073     0.35162137     2.29727818
Ti      0.70778399     0.53767600     5.92258501     0.17619442    -0.00084332    -1.52446754
Ti      4.42425101     4.76621302     3.57142001    -0.29498946     1.53859755     1.21327935
O       3.17330801     3.52668898     4.63292597     0.39298272    -0.15915083    -0.36094445
O       0.70479599     2.04622100     0.08309797     1.34107865    -0.96643356     0.07315177
O       4.40977399     4.00183898     9.19573898    -0.71488419    -0.20304909    -0.58621302
O       3.30678498     0.98502498     0.11552902     0.78931714     0.39048669    -0.80116478
O       1.73220802     4.83552000     8.90076600    -1.06800554     0.00236464    -0.09577183
O       4.53582301     1.16766601     4.67885300     0.39837330    -2.67718607    -0.44374814
O       0.91449698     4.59469101     4.39354201    -1.00672482     1.05886809     0.85322090
O       5.14506901     3.17376802     2.73242700     0.66480679     0.90115477     0.16857496
O       0.06191400     2.58774899     6.38631701     0.07672072    -0.83414999     1.13387054
O       2.82660600     1.86803702     2.27151700    -0.53049797    -0.29917959     1.46152511
O       2.35870599     2.95484200     7.45923002     1.95637060     0.40190497    -1.89954020
O       5.17165202     0.63393302     1.96370999     1.07490021    -1.97767889     1.59258020
O       2.69956700     0.39288802     6.29554401    -1.41087436     0.66172867     0.65162937
O       2.68406501     4.40854900     2.29295000     0.27675236     2.73248281    -1.19755782
