# total energy = -19515.74020445 eV

CRYSTAL
PRIMVEC
        5.17600016     0.00000000     0.00000000
        0.00000000     5.50899976     0.00000000
        0.00000000     0.00000000     9.26300011
PRIMCOORD
23 1
Ti      1.97634600     3.21208400     3.37710401    -0.48470326    -0.33996347     2.46295808
Ti      3.40266301     2.29436698     5.94389900     0.36161088     0.11737862    -3.78279452
Ti      4.15295200     2.15552198     1.52034301     1.51707638     0.09165523    -1.52305291
Ti      0.73049099     3.44903798     7.69289099     0.46013816     0.20814630     3.00861322
Ti      1.92989800     0.01923602     1.51107098    -0.10534225     1.22031878    -2.61756011
Ti      3.25394801     5.25988798     7.94735000    -1.87145963     0.47792352     1.51272376
Ti      0.83146801     0.58099497     5.85128399    -0.99780463    -0.11963116    -3.46929568
Ti      4.59593199     4.91157299     3.30741602    -0.30688133     0.55705850     2.92282704
O       1.80377601     1.98096202     4.70283198    -0.64277320    -0.56467463     2.12634270
O       3.85690500     3.47810199     4.52923898    -1.37101582     0.26323684    -0.01880608
O       0.03932099     2.70734500     0.09458001    -0.48166370     0.79204533    -1.17465751
O       3.29819601     0.95941799     0.24400702    -0.37823178    -1.63905856    -0.43343725
O       1.47625800     4.79089200     8.90109499     2.11654602     0.36124167     1.70268593
O       4.25563699     0.66779200     4.99020899     0.29634623    -0.06377649    -1.37852987
O       1.16046401     4.85986200     4.37702898     0.17893548    -0.06814377    -0.19862653
O       0.23476499     3.44884399     2.60071901     1.46239337    -1.18051423    -1.27745308
O       5.08140999     2.05460100     6.74790700    -0.04331076     1.04531477     0.71900592
O       2.46829198     1.66067399     2.40928602     0.37628392    -1.13161568    -0.55138408
O       2.49705298     3.63933399     6.92606801    -0.13234784     0.58132690     0.96404937
O       0.11702998     0.67883800     1.96545802     0.05629792    -0.81671611     0.73703785
O       4.99172201     5.00607701     7.12215703    -0.78356738    -1.24514407     0.64977123
O       2.33147802     1.00867899     7.02825801     0.39015888    -0.27223622    -0.05889988
O       3.05730600     4.01193102     2.00896502     0.38331434     1.72582793    -0.32151734
