# total energy = -39033.22743672 eV

CRYSTAL
PRIMVEC
        7.60600008     0.00000000     0.00000000
        0.00000000     7.60600008     0.00000000
       -3.79573973    -3.79573973     9.71340985
PRIMCOORD
46 1
Ti      1.99804047     4.77247446     6.19485761    -0.26194717     1.32050236     1.16086791
Ti      4.00722701     6.71598899     1.20781400    -0.95815203     0.84312495     0.49412584
Ti      1.59509046     0.87190847     6.09241562     1.16770113    -1.13500414     1.67881786
Ti      3.92496201     2.73144400     1.18302803    -0.88217950     0.66777385     0.65381686
Ti     -1.88001654     4.74728647     6.04939462    -0.05219444    -1.18413897     0.32821764
Ti      0.18671702     6.57597900     1.28010300    -0.44896749     0.19599809    -0.80423391
Ti     -2.20781755     0.85080044     5.95399962    -0.48771274     1.52286111     1.07754793
Ti      0.04480602     2.85874801     1.18201301     0.19178020    -0.04248235    -4.17597522
Ti      3.60076945     0.96959242     8.44898664     0.04067770    -0.98298015     0.41348702
Ti      5.88499703     2.85935101     3.67709200    -1.39818930    -0.24114771    -1.16850357
Ti      3.96449944    -2.94295255     8.59408461    -4.18662293     1.02746591    -0.15201499
Ti      5.81235602    -1.01674699     3.55124698    -1.31531310     0.18224912     2.83820918
Ti     -0.20758057     0.99443544     8.25978863    -0.46083082     0.30203454     1.49301599
Ti      1.91507897     2.84557499     3.38556899     1.75268542     1.13811004     0.78053604
Ti     -0.07957355    -2.73356155     8.52288365     2.74554350    -0.65239864     0.44629842
Ti      2.07547800    -0.94640298     3.70411301     0.12609929    -0.64690317     0.35418142
O       1.66717742    -0.92185556     6.05497860     1.32238749    -1.36967910    -1.88560971
O       3.83957302     0.95825501     0.93966200     0.00132618    -1.40761111    -1.27097673
O      -1.94636954     2.77370843     5.95040265     0.71771034     0.46849219    -2.22447840
O       0.02901003     4.75902600     0.74124800     0.22233366     0.04529797     0.45766553
O      -2.06038655    -1.01063557     5.52730162    -0.59873482    -0.09692420     0.77847402
O       0.30502502     0.98466001     0.71824403    -0.11188648    -1.79649344     2.08029268
O       3.48096743     2.85564544     8.97698864     1.27872732    -0.21834536     0.90328158
O       5.99124799     4.66816002     4.04283899    -0.58548257     0.97607108     0.90427043
O       3.53131245    -1.01523253     8.83674360     0.87247590     1.34407090     0.31575653
O       5.83024099     1.09989798     3.92516802    -0.17093060    -1.09116502     1.30773092
O       0.00240643     2.81442047     8.93124264    -0.81961246    -0.10067235     0.49273616
O       2.01033702     4.73636399     4.02594797    -0.33527429     0.44143107     1.25113397
O      -0.24060954    -0.74965758     9.06796765     0.64126011     0.10224664    -1.18090683
O       1.79815202     1.11878099     4.35937102     0.30588426     0.86557737    -3.20946890
O       1.78557443     1.10312745     8.08616261    -2.40411219    -0.26534334    -0.20205022
O       3.71929097     3.13575701     3.06371699     2.01981543    -0.57517784     0.61319445
O       1.89329047    -2.74473857     8.28594263    -1.44565882    -0.65162294    -1.53844483
O       3.99271501    -0.41216499     3.23806999    -2.43385755    -1.66823211     0.00630718
O      -2.15081855     0.88071446     8.03318964     0.69424491     0.36017003    -0.62465823
O       0.09544601     2.93182601     2.97893200    -1.46976447     0.00400989     2.44775822
O      -1.94987053    -2.78286457     8.17915064     2.60623157     0.19158865    -1.00287176
O      -0.08268903    -0.81645901     3.34739102     4.66070214     0.19957913    -0.56018111
O       3.87129142     4.37058143     6.57911464    -1.35685880     1.13256416    -0.94278788
O       5.85781901     6.54910299     1.76116502    -1.32415179    -0.65352042    -3.56508757
O       3.50623045     1.04744244     6.43969263     1.74722851    -0.06973683    -0.52249618
O       5.72118798     2.81382203     1.44932002     0.97209487     0.38692752     1.39644044
O       0.00881943     4.85223343     6.58967861    -0.59612077    -0.81404859    -0.20092382
O       2.03699998     6.26792900     1.80386301     0.49311617     0.73764077    -0.53533576
O      -0.27810953     0.70988445     6.42933160     0.34096697     0.74575338    -0.07621575
O       1.97566702     2.80114299     1.38887501    -0.81643791     0.46208732     1.16905764
