# total energy = -19962.18167765 eV

CRYSTAL
PRIMVEC
        5.20163127     0.00000000     0.00000000
        0.00002851     5.53610866     0.00000000
        0.00000000     0.00000000     9.30977620
PRIMCOORD
24 1
Ti      1.88535805     3.28069287     3.45386064     0.00100530    -0.04859104     0.04279783
Ti      3.31630173     2.25541584     5.85591583    -0.00100530     0.04859104    -0.04279783
Ti      4.48608262     2.25541775     1.20099040     0.00294803     0.04909163    -0.04261811
Ti      0.71557716     3.28069118     8.10878617    -0.00294803    -0.04909163     0.04261811
Ti      1.88534390     0.51263865     1.20102773     0.00100530    -0.04859104    -0.04279783
Ti      3.31631588     5.02347023     8.10874884    -0.00100530     0.04859104     0.04279783
Ti      0.71556301     0.51263659     5.85587849    -0.00294803    -0.04909163    -0.04261811
Ti      4.48609677     5.02347229     3.45389797     0.00294803     0.04909163     0.04261811
O       1.64635918     1.94935803     4.75070763     0.08861439     0.07325076     0.00597139
O       3.55530060     3.58675075     4.55906883    -0.08861439    -0.07325076    -0.00597139
O       0.95450695     1.94938032     0.09584937    -0.08858405     0.07290546     0.00583049
O       4.24715288     3.58672845     9.21392683     0.08858405    -0.07290546    -0.00583049
O       3.55528645     0.81869636     0.09581916    -0.08861439    -0.07325076     0.00597139
O       1.64637332     4.71741236     9.21395704     0.08861439     0.07325076    -0.00597139
O       4.24713873     0.81867406     4.75073784     0.08858405    -0.07290546     0.00583049
O       0.95452099     4.71743471     4.55903863    -0.08858405     0.07290546    -0.00583049
O       0.18900462     3.36737513     2.51480287     0.02645332    -0.01261872     0.02267277
O       5.01265516     2.16873359     6.79497360    -0.02645332     0.01261872    -0.02267277
O       2.78982442     2.16868200     2.14011496     0.02628697     0.01240455    -0.02252493
O       2.41183536     3.36742672     7.16966134    -0.02628697    -0.01240455     0.02252493
O       0.18899047     0.59932074     2.14008523     0.02645332    -0.01261872    -0.02267277
O       5.01266931     4.93678798     7.16969107    -0.02645332     0.01261872     0.02267277
O       2.41182121     0.59937234     6.79500327    -0.02628697    -0.01240455    -0.02252493
O       2.78983857     4.93673638     2.51477314     0.02628697     0.01240455     0.02252493
