# total energy = -19960.24172661 eV

CRYSTAL
PRIMVEC
        7.60600008     0.00000000     0.00000000
        0.00000000     7.60600008     0.00000000
       -1.89786986    -1.89786986     4.85670466
PRIMCOORD
24 1
Ti      3.77062699     6.49351398     1.26779598    -0.60587169     1.87712943    -0.74514043
Ti      3.81944999     2.85876299     1.25977799    -1.43230297    -1.93942780    -0.91294071
Ti      0.02610701     6.75208501     1.15115002     0.56638364    -0.35782904     1.44313040
Ti     -0.02410799     2.92826698     1.20754698     0.96374341     0.37961632    -0.87733631
Ti      5.72958624     2.93385223     3.59676580     0.61872335    -0.38895560     1.06571546
Ti      5.72949924    -0.96351276     3.57838282     1.19210502     0.33182155     0.51632321
Ti      1.91431024     2.78461123     3.62763583    -1.23388932    -0.06982990    -0.25519365
Ti      1.92811721    -1.07897876     3.62722784    -1.31361437     0.27758051     1.52247416
O       3.50119099     4.60744403     0.82476301     1.12445953     1.39218757    -0.84165582
O       3.61963700     0.82825998     1.00564702     1.12669999     0.59480308    -0.58906104
O       0.08488501     4.93733598     0.70105799    -0.60147613    -1.05990245     0.41619002
O       0.03419401     1.01998899     0.65910000    -0.52467802     0.16198187     0.99923339
O      -1.55114177     4.82131022     4.05733379    -0.75076266     0.14931224    -0.77844342
O       5.71844224     1.09647320     4.12805479    -0.33543421    -0.57666626    -1.61515166
O       1.62814325     4.64240920     4.11435180     1.06338449    -0.26098584     0.49848669
O       1.80634723     0.77766423     4.06095479     1.09643269     1.47745053     0.82169634
O       3.77719323     3.05657722     3.27272480     0.02870972    -0.65831732    -0.05983756
O       3.78838221    -1.17112476     3.21244781     1.30854364    -0.23321843     0.89452723
O       0.08225822     2.73111723     3.07797281    -2.26927038    -0.24947500     1.52822058
O       0.09204223    -0.98568375     3.14228383    -1.83678855     0.49453851     0.18183131
O       5.73816097     6.63879398     1.69237198    -0.47984979     0.13536606    -1.44990912
O       5.64295199     3.10811099     1.65417898     0.45923776    -0.37468597    -0.49675043
O       1.92745299     6.67516201     1.77441202    -0.13851566    -0.24422841    -1.57525533
O       1.77598600     3.04175200     1.62172200     1.97403049    -0.85826541     0.30884591
