# total energy = -19958.67280051 eV

CRYSTAL
PRIMVEC
        7.60600008     0.00000000     0.00000000
        0.00000000     7.60600008     0.00000000
       -1.89786986    -1.89786986     4.85670466
PRIMCOORD
24 1
Ti      3.75648399     6.71843098     1.11378100     1.18112049    -1.70614407     0.33712497
Ti      3.93940098     2.66624899     1.24576098    -1.91348999     2.19445716     0.70734160
Ti     -0.01678000     6.78442901     1.18074902    -1.29439434    -0.59882635     0.02232695
Ti     -0.04440400     2.87224102     1.29681098     1.67552710    -0.71809472    -0.42447386
Ti      5.69605222     2.91330523     3.73863082    -1.00637437     0.34291715     0.05485065
Ti      5.60853620    -0.75787676     3.60379883     0.10870217    -1.16325466    -0.37508527
Ti      1.94578321     2.67897623     3.65758780     0.94293726     0.10911483     0.46143760
Ti      1.90325620    -0.98229776     3.61895981    -0.06430331     0.15063919    -1.26016729
O       3.90976901     4.59603899     0.76053402    -0.96523079     0.62056015    -0.02631962
O       4.14384702     0.90216101     0.70606300    -0.97493697    -1.99497085     0.47908694
O      -0.07116698     4.69376802     0.76692198     1.41613355     2.71011137     1.19609949
O      -0.03612698     0.93003701     0.67481202     0.07212436     1.91062732     0.48797268
O       5.32401321     4.92701925     4.10891582     1.55325568    -2.05537714    -1.07048743
O       5.36138021     1.12896421     4.30379180     0.80526364    -2.59159993    -3.58405794
O       1.95982620     4.73298223     4.04243984    -0.68833831    -0.06213767    -0.70927918
O       2.17946424     0.77149423     4.20227983    -1.04604214     1.86665295    -1.65067738
O       3.84078822     2.87838922     3.28016980     0.03713574    -0.00722712    -0.91113322
O       3.77402521    -0.76847978     3.02889480     0.33263480    -0.39224070     0.69400862
O       0.12729925     2.74887123     3.17323482    -2.97326259     0.58488993     2.30331719
O      -0.06620679    -0.67572876     3.16837084     0.16883387    -0.37560823     0.84335480
O       5.71980202     6.42465299     1.53251002    -0.57458418     1.01135897     1.16702647
O       5.70980200     2.58424599     1.53233200     1.13299328     0.69950127     2.39627521
O       1.86323802     6.91771903     1.63388598     0.45736111    -1.11508194    -0.71176569
O       1.84729798     2.48038300     1.66597302     1.61693370     0.57973333    -0.42677629
