# total energy = -19517.36592577 eV

CRYSTAL
PRIMVEC
        5.17600016     0.00000000     0.00000000
        0.00000000     5.50899976     0.00000000
        0.00000000     0.00000000     9.26300011
PRIMCOORD
23 1
Ti      1.86378201     3.24386099     3.42413898     0.01289872     1.18098731     2.71333322
Ti      3.30632200     2.25677402     5.86350698     1.01376038     0.17052334    -2.23308980
Ti      4.30686701     2.10199501     1.54365301     0.14232424    -0.29160332    -1.95234194
Ti      0.90575597     3.32622399     7.83381899    -0.85886422     0.72130886     1.17135261
Ti      1.90130602     0.36969598     1.26517099     1.93428585    -1.44002965    -0.65625556
Ti      3.40788599     5.14360901     7.88309100    -1.11643280     0.25839571     2.08847548
Ti      0.70502200     0.57232800     5.87605800     0.07175103    -0.47911780    -2.84745358
Ti      4.49787602     4.86342997     3.34681798     0.37917744     0.72644181     3.18893683
O       1.69334900     2.04344002     4.83113101    -0.82300528    -1.24671142     0.60370527
O       3.53534002     3.53355902     4.53430803     0.28756077     0.47427692    -0.30189262
O       4.88322703     2.99811800     9.19653798     0.46700635    -0.20767554     0.93819075
O       3.33262698     0.98221097     0.15218497     0.20263771    -0.15945936    -0.37757358
O       1.80259198     4.63606802     9.03330897     0.16016976     0.07635151     0.61884856
O       4.33075899     0.67657301     4.73302202    -0.59703197     0.88438911    -0.07569536
O       0.94164001     4.67491402     4.45900002     0.76949058     0.22896171     0.36793683
O       0.07746499     3.19721798     2.72387698     0.57551440    -0.28401110    -1.14555467
O       5.08157298     2.05940699     6.72267599    -0.15160387     0.06051582     0.55121413
O       2.64315199     1.89291999     2.45625601     0.57482226    -0.52999635    -2.02020855
O       2.76164197     3.52792000     7.08014702    -1.01504285    -0.66564600     0.67885942
O       0.24584300     0.56292902     2.03752699    -1.36388974     0.51532023    -0.43146752
O       5.08862501     4.78751902     7.15909402     0.76921444     0.30276705    -0.24862114
O       2.53281700     0.65654900     6.69727098    -0.72323719     0.00051474     0.43182002
O       2.83177198     4.73831898     2.43884401    -0.71150601    -0.29650333    -1.06251880
