# total energy = -19518.79234103 eV

CRYSTAL
PRIMVEC
        7.60600008     0.00000000     0.00000000
        0.00000000     7.60600008     0.00000000
       -1.89786986    -1.89786986     4.85670466
PRIMCOORD
23 1
Ti      3.77755598     6.63804202     1.25855802     1.40519376     0.42014798    -0.37542388
Ti      3.78691501     2.83123101     1.04118402    -0.46174742    -0.28997915     1.16908515
Ti      0.05772599     6.58998098     1.24109401    -1.45283298     1.58646637     0.90110026
Ti      0.04752001     2.88842300     1.06995502     0.17406323    -1.94201664     0.04811307
Ti      5.54139425     2.90808622     3.65700083     0.11633063    -0.66975745    -0.48015755
Ti      5.68032820    -1.03521977     3.64095882     1.30147259     0.98110016    -0.01393153
Ti      1.95524924     2.92718920     3.71719379    -0.33106591    -0.52138880    -0.49950382
Ti      1.95546224    -0.96880877     3.62420883    -1.11465282     0.19558955     0.28725404
O       3.77128698     4.72563201     0.92072100    -0.47769957     0.23347837    -0.74274621
O       4.06630298     0.88001002     0.72323401    -0.18564400     1.25486567     0.23238436
O       0.11412798     4.74685403     0.79075502     0.73347044     0.35079193    -0.24135057
O      -0.19204901     0.94778900     0.85773399     0.56755324     0.04249264    -0.60761181
O       5.52153322     4.76918425     4.15088582     0.67931605    -0.80685361    -0.80674639
O       5.82474824     0.91958724     3.98988280    -0.04734765     0.88207743     0.17805102
O       1.69497823     4.77337925     4.06453484     0.19345862    -0.85981218    -0.36978622
O       1.68772622     0.99856223     4.01316681     0.25094979    -0.21622446     0.73425077
O       3.75236423     2.77623922     3.47079479     0.55486946     0.05432666    -1.17192314
O       3.87880521    -0.87447779     3.20914781    -1.79648238     0.00418036     0.05164525
O       0.04403522    -0.98905477     3.18633884    -0.47214548    -0.28755126     0.52910546
O       5.69980197     6.43874001     1.62212698     0.08424583     0.24871473     0.35631698
O       5.85286702     3.03878401     1.72932299    -0.64900787    -0.34041470     0.48698872
O       1.90031800     6.91127201     1.65769102     0.84852786    -0.66104604    -0.24638814
O       1.93225601     2.70398499     1.59653702     0.07917432     0.34081271     0.58127496
