# total energy = -19959.65237893 eV

CRYSTAL
PRIMVEC
        5.93400000     0.00000000     0.00000000
        0.00000000     9.29699974     0.00000000
        0.00000000     0.00000000     4.64899994
PRIMCOORD
24 1
Ti      4.45701200     6.79211600     2.27437001    -0.70949464     1.66608395     0.90863154
Ti      4.43283702     2.31046402     2.34516900     0.24614311    -0.32898023     0.94527774
Ti      1.49108999     7.03544699     2.36495002     1.08806118     0.67035806    -0.20852760
Ti      1.43719001     2.46110401     2.31839999    -0.16556779    -1.92611591     0.22176210
Ti      2.93540002     4.68064898     0.04975901     0.29223735    -0.76892674    -0.38816653
Ti      3.02718201     9.27564601     4.58385600     0.21728709    -0.60423286    -0.39510285
Ti      0.03184398     4.66142201     0.03736002    -0.75637332    -0.31119050    -0.40814504
Ti      5.92846100     9.21312600     0.15316199     0.33639118     0.57365832    -1.18893176
O       4.32750302     5.63376198     0.78220298     1.16743193    -0.72991538     0.17051794
O       4.44880902     0.91661802     0.69285998     0.08374189     0.48930040     1.23488588
O       1.54330603     5.63621201     0.91407401    -0.57433169    -0.26704079    -0.35043481
O       1.44533002     0.93514600     1.01600101     0.20195740    -0.58836221    -1.37709853
O       4.49124099     8.36773798     3.54135301    -0.39774106     0.66881771     1.86055610
O       4.51510799     3.67046400     3.64264002    -0.52491919     0.95185360     1.45586225
O       1.41298200     8.35778802     3.74209798     0.09283588     0.04470996    -0.37695806
O       1.41999201     3.67295002     3.92706798     0.68527407    -0.04109679    -1.15475202
O       2.95023598     6.26237899     3.27965501    -1.02176217    -1.61002617    -0.04624208
O       3.04444901     1.40912001     3.24927299    -0.70312781     0.60736370    -0.89829056
O       5.81639099     5.84093302     3.19451002     1.35661506     1.58335816    -0.78768243
O       5.91126501     1.39995598     3.05329500     0.83423227     0.47656238     0.37940832
O       3.05428901     7.84087599     1.31097102    -1.63200628     0.21844203     0.41560047
O       3.09821802     3.29740499     1.34588100    -1.08454957    -0.07816491     0.34638352
O       5.78368302     7.85026798     1.39542199     1.54638337    -0.31976256     0.07226782
O       0.11510600     3.45113300     1.53962798    -0.57871877    -0.37669324    -0.43082115
