# total energy = -18969.44257142 eV

CRYSTAL
PRIMVEC
        7.60600008     0.00000000     0.00000000
        0.00000000     7.60600008     0.00000000
       -1.89786986    -1.89786986     4.85670466
PRIMCOORD
22 1
Ti      5.90945602     4.91653498     0.03420401   -16.81937970     4.50274713     4.76119554
Ti      5.20033924     3.17469323     2.63681779   -12.45151321     2.75572559     0.67165750
Ti     -0.34213775     4.07097022     4.69604380     3.21988187    17.86261857     5.90963010
Ti      0.09948400     3.49990102     1.43070700    23.25898764   -18.69953198    11.44161669
Ti     -1.70355979     2.46513523     4.75284982   -26.87868700    50.63409571    57.63112184
Ti      5.28210824     1.53766023     3.89953181   -42.28592711   -37.83272464   -37.64792782
Ti     -0.48165676     2.29638023     4.12558184    68.49467076   -13.12495300   -31.90036855
Ti     -0.77518879     0.21630522     4.09937380     9.04146657   -14.89708806     1.30510222
O       4.45565398     4.50553698     1.34707101    -3.49513528     2.04107177     0.39407004
O       5.20773698     6.74162799     1.00458501     0.05651287    -1.86117496    -0.09101066
O       1.13231199     5.25843597     1.72537999    -1.42100142     1.34157950    -1.93457587
O      -0.82681776    -1.73093275     4.76377579     0.56016902     0.35094491    -1.03674246
O       6.49461297     4.36525098     1.77277803    -0.49005244    33.06105905    19.00792744
O       5.87461324     0.85144323     2.52086183     6.18427030    -0.44295522    -7.22600147
O       1.17466321     3.29018622     4.72881279     3.09269758     1.53010134     1.16422731
O       1.88115501     3.32919701     1.01844300     1.75682567    -2.38206908    -1.77686743
O       3.68374820     2.29016420     2.57811680     1.13437139     0.10512885     1.98602906
O       0.81549320     2.62134624     2.91510380     0.14001822     1.10941857    -3.17858274
O       4.23756024     4.32441125     4.09791682     3.62981074     8.18724859    -6.03814005
O       6.01424698     3.52854999     1.26581902   -10.21563968   -25.17062206   -18.58852199
O       0.96158724     0.36819322     3.75120581    -2.51647869    -0.20450896    -0.02190324
O       4.78078524     0.10529521     4.30005782    -3.99586835    -8.86611238     5.16806454
