# total energy = -39036.59451283 eV

CRYSTAL
PRIMVEC
        7.60600008     0.00000000     0.00000000
        0.00000000     7.60600008     0.00000000
       -3.79573973    -3.79573973     9.71340985
PRIMCOORD
46 1
Ti      1.89204844     4.70207346     6.13288963    -0.04546303     1.08369262     0.30303984
Ti      3.86810202     6.74838199     1.21604900     0.34462462    -0.55545696     1.19635506
Ti      1.93082745     0.82428543     6.21096365     0.29734459    -0.47898693    -1.85927903
Ti      3.71871502     2.81629598     1.27423400     0.62290628    -0.77552676    -0.54725771
Ti     -1.89910253     4.69250646     5.91944964     0.01637639    -0.49174783     1.26634360
Ti      0.07738302     6.61214298     1.12935702    -0.37291937     0.66039452     2.02162703
Ti     -1.78789254     0.87464744     5.96629061    -0.53615286     1.61939399     1.17684989
Ti     -0.10821701     2.88747599     1.20487299    -0.56988986     0.41619619    -0.41230611
Ti      3.83313743     0.98866143     8.50188960     0.69275906     0.97326884    -0.74426111
Ti      5.67878898     2.89281798     3.67951299    -1.17999615    -1.15677368    -1.49980525
Ti      3.96786347    -2.76567653     8.52152065    -0.20989877    -0.35005377    -0.73523550
Ti      5.58621699    -0.97707102     3.69496702     0.22863235     0.58260654    -2.44958782
Ti      0.01864545     1.04610944     8.41187163    -0.99671808    -0.90947229    -0.22974178
Ti      1.80088898     2.73793600     3.55869700     0.98504141     0.40716930     1.60401184
Ti      0.02155947    -2.80259754     8.48357160     0.53620119     0.30684071     0.95241615
Ti      1.81824800    -1.03460301     3.69062401    -0.18159348    -0.03127131    -0.02204362
O       1.73489343    -1.00961357     5.77088265     0.02901825     0.01557755    -0.52259028
O       3.92393101     0.89490202     0.96810702    -1.05549455     2.35700853    -1.42555845
O      -1.94990556     2.75187146     5.48012462     0.02386525     1.75267334     0.87413580
O      -0.21919199     4.83682098     0.80831301     0.67558717    -0.82857044    -0.87525861
O      -1.79194356    -0.96201355     5.60963260     0.27370560    -1.12534605     1.50496520
O       0.18223499     1.02144899     0.76234301    -0.18687685     0.91530201     0.52904555
O       3.76338747     3.00567048     8.96058261    -0.05558496    -1.25141911    -0.80550712
O       5.49169900     4.74029699     3.89857702     0.51962528    -0.89282156     1.63784834
O       3.99071943    -0.80991658     8.87686762     0.20413178    -1.27040903     0.17144508
O       5.66656599     0.85200702     4.02219198     0.45967896     1.11349403     0.17080050
O       0.19641144     2.80092545     9.04675262    -0.27708840    -0.44354477    -0.04408389
O       2.06207701     4.61400101     4.24956399    -0.62566019    -0.79038569    -0.55114702
O      -0.26507854    -0.91848655     8.82848261     0.58039410     0.48251217     0.68308143
O       1.78532402     0.91451402     4.06792702    -0.00571788     0.22516753     0.18522260
O       1.97223842     0.71623643     8.05313163    -1.11074372     0.36624015     1.28709035
O       3.83965297     2.69915403     3.21045498    -0.74133545     0.05723098    -0.08632225
O       1.83944547    -2.89098157     8.12722062     1.21717997     0.46900976    -0.21616584
O       3.71996800    -0.98945202     3.36022902    -0.12212153     0.06987772    -0.08571393
O      -1.88311857     1.27213243     8.00807060     0.30122773    -0.91361794     0.07546910
O      -0.09555401     2.87850098     3.10754001    -0.41849990    -0.31820653     0.80634453
O      -1.77134253    -2.99491056     8.01969165    -1.98154634     0.09836864    -0.22571029
O      -0.11055301    -1.17812901     3.08718700     2.38105170     0.34904461     1.52359285
O       3.82698945     4.72519046     6.48920060     0.38161844    -0.08559823     0.23050977
O       5.69038003     6.71154702     1.75818300    -0.85867755    -0.17728843    -1.36128470
O       3.78057647     1.17369942     6.50506465     0.31923137    -0.47131090    -0.55905317
O       5.56598400     3.02512599     1.36424202     0.98242994    -0.06039318     0.38287211
O       0.00279046     4.45666444     6.39974964     0.05743564     0.43736075    -0.01201246
O       1.98988802     6.49378402     1.67243401    -1.08213890    -0.02187855    -0.37112114
O       0.10237347     1.45894845     6.47681960     0.01162705    -1.28192294    -0.14525350
O       1.85178202     3.22125999     1.83653801     0.47242470    -0.07642736    -2.79676555
