# total energy = -19073.34602668 eV

CRYSTAL
PRIMVEC
        5.17600016     0.00000000     0.00000000
        0.00000000     5.50899976     0.00000000
        0.00000000     0.00000000     9.26300011
PRIMCOORD
22 1
Ti      1.74940099     3.40618701     3.47427598     1.64260103     1.51820793    -1.53231429
Ti      3.77155199     2.21644801     5.82195302    -2.83061182     0.86725476    -0.28797086
Ti      4.24717899     2.37637400     1.30354698     0.42330195    -0.65884363    -0.92445977
Ti      0.75211402     3.11009900     7.98496100     0.23533933     1.90692982    -0.66808623
Ti      1.76996799     0.57001100     1.11415899     0.47521280    -0.30644141     0.07849529
Ti      3.31931002     5.02094900     7.97273198    -0.15375588     0.01511295     0.52777723
Ti      0.83506398     0.05329402     6.15132199     0.45793447     0.31483093    -0.77064938
Ti      4.43066702     5.03110598     3.44309299    -0.74743976     0.86945357    -1.11430830
O       3.46532701     3.59336198     4.35196302     0.38758289    -2.00122326     1.33710604
O       0.89922302     2.07502698     0.12787902    -0.28268698    -2.02759687     1.56813877
O       4.20247902     3.64033000     9.04324798     1.08816197    -0.08867867    -0.30815531
O       3.38070802     0.92351299     0.12627598     0.97484312    -0.05301462    -0.29037099
O       1.87933702     4.59184901     8.97844499    -2.43781165     0.13505033     0.37730439
O       4.30123900     0.62984200     4.90579897    -0.31962784     1.36698201     1.21232855
O       1.09676700     4.96981101     4.37609498    -0.22503383    -1.21358377     0.53797268
O       0.09263401     3.62061201     2.53252997     0.35967150    -1.06727586    -1.16620115
O       5.05987200     1.66032299     7.03022100     0.61090359    -0.83062655    -0.10055691
O       2.53636000     2.07279200     2.05565697     0.73028124     0.91249745     1.58178850
O       2.18187898     3.62060900     6.56184500    -0.54643727    -0.19757135     1.68996205
O       0.05913699     0.99062701     2.40797700    -0.25437270    -0.53383321    -1.46254686
O       2.44073201     0.79370301     6.78024698     0.31550790     0.72814414    -0.59767192
O       2.66939701     4.78184402     2.33349699     0.09643569     0.34422533     0.31241820
