# total energy = -4987.84445511 eV

CRYSTAL
PRIMVEC
        3.19919414     0.00000000     0.00000000
        1.23388512     4.85842193     0.00000000
       -0.00000794    -0.00006569     5.05290062
PRIMCOORD
6 1
Ti      2.21653554     2.42917802     2.52645037     0.00000000     0.00000000     0.00000000
Ti      0.00000000     0.00000000     0.00000000     0.00000000     0.00000000     0.00000000
O       1.84006147     0.94682201     0.98473594     0.30109043    -0.15436652    -0.38941120
O       2.59300955     3.91153403     4.06816480    -0.30109043     0.15436652     0.38941120
O       0.37647070     1.48232942     3.51118732    -0.30090891     0.15489900    -0.38958552
O       0.85740636     3.37602672     1.54171342     0.30090891    -0.15489900     0.38958552
