# total energy = -19919.48743323 eV

CRYSTAL
PRIMVEC
        6.36617558     0.00000000     0.00000000
        0.00003489     6.77553598     0.00000000
        0.00000000     0.00000000    11.39405445
PRIMCOORD
24 1
Ti      2.30745313     4.01517635     4.22711302     0.04868051    -0.89913156     0.63198433
Ti      4.05875734     2.76035969     7.16694176    -0.04868051     0.89913156    -0.63198433
Ti      5.49042947     2.76036202     1.46986884     0.04789401     0.89884771    -0.63193600
Ti      0.87578100     4.01517428     9.92418606    -0.04789401    -0.89884771     0.63193600
Ti      2.30743582     0.62740849     1.46991453     0.04868051    -0.89913156    -0.63198433
Ti      4.05877466     6.14812774     9.92414037    -0.04868051     0.89913156     0.63198433
Ti      0.87576369     0.62740597     7.16689607    -0.04789401    -0.89884771    -0.63193600
Ti      5.49044679     6.14813027     4.22715871     0.04789401     0.89884771     0.63193600
O       2.01494705     2.38578146     5.81429889     1.41328271     1.30711874     0.00953854
O       4.35126342     4.38975464     5.57975589    -1.41328271    -1.30711874    -0.00953854
O       1.16820253     2.38580875     0.11730818    -1.41338633     1.30759362     0.00869805
O       5.19800801     4.38972736    11.27674627     1.41338633    -1.30759362    -0.00869805
O       4.35124611     1.00198659     0.11727121    -1.41328271    -1.30711874     0.00953854
O       2.01496437     5.77354945    11.27678324     1.41328271     1.30711874    -0.00953854
O       5.19799069     1.00195930     5.81433586     1.41338633    -1.30759362     0.00869805
O       1.16821972     5.77357681     5.57971891    -1.41338633     1.30759362    -0.00869805
O       0.23131908     4.12126508     3.07781843     0.49896749    -0.28890983     0.33263505
O       6.13489139     2.65427096     8.31623634    -0.49896749     0.28890983    -0.33263505
O       3.41441197     2.65420782     2.61924518     0.49907933     0.28913146    -0.33285642
O       2.95179850     4.12132823     8.77480941    -0.49907933    -0.28913146     0.33285642
O       0.23130177     0.73349703     2.61920879     0.49896749    -0.28890983    -0.33263505
O       6.13490871     6.04203902     8.77484579    -0.49896749     0.28890983     0.33263505
O       2.95178118     0.73356017     8.31627266    -0.49907933    -0.28913146    -0.33285642
O       3.41442929     6.04197587     3.07778205     0.49907933     0.28913146     0.33285642
