# total energy = -19073.59529205 eV

CRYSTAL
PRIMVEC
        5.17600016     0.00000000     0.00000000
        0.00000000     5.50899976     0.00000000
        0.00000000     0.00000000     9.26300011
PRIMCOORD
22 1
Ti      1.83829498     3.35538102     3.11110100    -0.29649536    -0.57963897     1.10470239
Ti      3.41448001     2.44510698     6.05903998     1.11773275    -1.08722274     0.03716685
Ti      4.38902199     2.25633400     1.27061400     0.18167704    -1.29921953    -1.18300614
Ti      0.90594600     3.07284498     7.85848500    -0.64234691    -0.19755850     1.13386026
Ti      1.73915098     0.50036000     1.23079998     0.33813876     0.63264382    -0.88082170
Ti      3.27665998     5.00422600     8.08956098     1.50893550     1.16516962     2.20358972
Ti      1.35960998     0.28335198     5.94401198    -0.54716232    -0.05044429    -0.62102475
Ti      4.28535601     4.96667399     3.57886501     0.51284143     0.36417839    -0.05153881
O       3.21313902     3.38994502     4.51847203     0.04475392     0.71345722    -1.11639835
O       0.95407398     1.94071899     0.26850200    -0.41929566     0.06424598    -0.35320748
O       4.39276698     3.57481998     8.84668102    -0.21174431    -0.28514650    -0.06331935
O       3.46884001     0.75993700     0.25810700     0.49937861     0.55049550    -0.55441618
O       1.80856200     4.56265198     9.06231202    -1.64900513    -0.23192542     0.39656504
O       3.02510499     0.73085099     5.17917099     1.19819442    -0.69268733    -2.21393970
O       0.90619101     4.94261601     4.12349402    -0.12856343     0.20521499     2.69375195
O       0.01105001     3.37610498     2.60503303    -0.65910408    -0.40018284    -0.55888399
O       0.10398598     2.10212498     6.29393399     0.29899653    -0.72858843     0.29283796
O       2.77748798     1.83220098     2.37532798    -0.78173418     0.31094059    -0.10471927
O       2.34644400     3.96339001     6.80052902    -1.22543013     0.00074151    -1.20925917
O       5.17106902     0.63240401     2.14977702     0.25889373     0.00703223     0.35628741
O       2.37009097     1.29168002     7.27107200    -0.49661005     0.66404394     0.98071861
O       2.71919598     4.56617900     2.22896199     1.09794862     0.87445076    -0.28894531
