# total energy = -19518.17082336 eV

CRYSTAL
PRIMVEC
        5.93400000     0.00000000     0.00000000
        0.00000000     9.29699974     0.00000000
        0.00000000     0.00000000     4.64899994
PRIMCOORD
23 1
Ti      4.53041598     7.00064200     2.18725801    -0.60995794     1.49732002     0.09652362
Ti      4.45279298     2.34278802     2.37135698     1.19913262     0.51356236    -0.23270523
Ti      1.38956897     6.94978399     2.24030703     0.88302051     1.35645668     0.48229594
Ti      1.49089599     2.27951800     2.32195500    -0.82475055     0.48233168    -0.13753839
Ti      3.01768100     4.51824998     0.19385599    -0.13104403    -0.84737781    -0.94585315
Ti      2.98064902     9.28993899     4.55604398    -0.35283030    -1.03088548     0.02509115
Ti      0.06547500     4.72251600     0.03391402    -0.19276416    -1.48102436    -0.83771406
Ti      5.91744501     0.11940599     4.63352199     0.24182365    -0.60350267    -0.39768321
O       4.40493599     5.51810002     0.99918502    -0.13988940     0.53359101    -0.39826248
O       4.36819997     0.86538001     0.90580000     0.55248348     0.44450354     0.18471300
O       1.49039899     5.46491099     1.04133801     0.48267749     0.83507482     0.02165152
O       1.44816800     0.89889397     0.86848501     0.34639714     0.66770931     0.49814268
O       4.42114400     8.41015900     3.62877600     0.01785503    -0.07493817     0.34946036
O       4.49222801     3.71456002     3.84093999    -0.90516672     0.28782996    -0.45631879
O       1.45917198     8.39806502     3.74033900    -0.05923670    -0.54925803    -0.54888008
O       1.42045901     3.68918698     3.80357002     0.67586408     0.76937771    -0.07665181
O       3.00682101     1.47159701     3.21362602    -0.74796144    -0.63018585     0.39285057
O       5.83798000     6.06258002     3.21915598     0.28977655    -0.13237869     0.44192189
O       0.06182298     1.41570398     3.20306200    -0.88471307    -0.13000479     0.18654389
O       2.92795101     7.85245899     1.35895401    -0.07847215    -0.99654041     0.76707220
O       2.92359900     3.37282498     1.57080001     0.51403570    -0.92483515     0.05633572
O       0.05353099     7.83566100     1.35465502    -0.62856888     0.40015533    -0.31595707
O       5.84979801     3.23694898     1.36003602     0.35228909    -0.38698074     0.84496200
