# total energy = -19516.02301453 eV

CRYSTAL
PRIMVEC
        5.17600016     0.00000000     0.00000000
        0.00000000     5.50899976     0.00000000
        0.00000000     0.00000000     9.26300011
PRIMCOORD
23 1
Ti      2.01207902     3.16973098     3.37822602    -0.57773455     0.32092187     2.92444221
Ti      3.25621802     2.30228702     5.93099099     1.92696951     0.51984151    -1.47446136
Ti      4.38374599     2.12433201     1.58642201     0.63683678    -0.02971862    -2.28624378
Ti      0.81294199     3.43554201     7.72275701    -2.43255091    -0.45189700     1.57121407
Ti      2.00422603     0.23228098     1.46277599     0.33963051    -0.50489157    -1.54420127
Ti      3.14320798     5.22603900     7.81230698     0.27074652    -0.27798881     1.78171576
Ti      0.67027501     0.55222699     5.89246102    -0.22289236     0.39378491    -3.47896124
Ti      4.55510898     4.85373100     3.43999302     0.91454276    -0.11209911     2.87817931
O       1.89929901     1.96077200     4.80424002    -2.60700624    -1.45710024    -1.23481415
O       3.68837702     3.41331302     4.52311302     0.20494425     1.84191328    -1.55863520
O       4.81547900     2.95865498     9.16673700     0.12182534    -0.71375213     0.57153228
O       3.38726400     0.67459500     0.24469003     0.15951284     0.64285136    -0.28783356
O       1.80602200     4.44033498     8.94990799     0.40249709     0.98821518     1.67592331
O       4.35616701     0.66001400     4.77782598    -1.09086291     0.23947238    -0.21598277
O       1.04889699     4.63567002     4.35680398     0.48435231     0.85732927     1.34675051
O       0.28822999     3.31534802     2.57747601    -0.03413475    -0.87847274    -1.51111476
O       5.08458701     2.35571799     6.41968698     0.63609219    -1.07563966     1.17612304
O       2.77478399     1.67251598     2.51580501    -0.15101200    -0.42644898    -1.48023760
O       2.37743400     3.73714198     6.74536002     1.24909791     0.72955491     0.08192438
O       0.22979601     0.60835100     2.22847901     0.33902656     0.76906892    -1.66959711
O       5.01816098     4.92998200     7.10230002    -1.26063035     0.01364536     1.11520870
O       2.19612898     1.07339102     6.92950798     0.56681353    -1.03631925     2.49385632
O       2.98238800     4.47725298     2.34576200     0.12393545    -0.35227135    -0.87478681
