# total energy = -19940.56670612 eV

CRYSTAL
PRIMVEC
        5.92623662     0.00000000     0.00000000
        0.00003248     6.30730788     0.00000000
        0.00000000     0.00000000    10.60666044
PRIMCOORD
24 1
Ti      2.14799499     3.73770482     3.93499545     0.03920882    -0.77021023     0.59592486
Ti      3.77827411     2.56960313     6.67166530    -0.03920882     0.77021023    -0.59592486
Ti      5.11100955     2.56960529     1.36829254     0.04002643     0.77013953    -0.59609095
Ti      0.81525955     3.73770289     9.23836833    -0.04002643    -0.77013953     0.59609095
Ti      2.14797887     0.58405100     1.36833507     0.03920882    -0.77021023    -0.59592486
Ti      3.77829023     5.72325713     9.23832579    -0.03920882     0.77021023     0.59592486
Ti      0.81524343     0.58404865     6.67162276    -0.04002643    -0.77013953    -0.59609095
Ti      5.11102567     5.72325948     3.93503799     0.04002643     0.77013953     0.59609095
O       1.87570274     2.22091039     5.41249775     1.26943792     1.16186858     0.03860153
O       4.05056636     4.08639762     5.19416300    -1.26943792    -1.16186858    -0.03860153
O       1.08747309     2.22093579     0.10920152    -1.26949423     1.16243191     0.03772607
O       4.83879607     4.08637221    10.49745893     1.26949423    -1.16243191    -0.03772607
O       4.05055024     0.93274361     0.10916710    -1.26943792    -1.16186858     0.03860153
O       1.87571886     5.37456433    10.49749334     1.26943792     1.16186858    -0.03860153
O       4.83877995     0.93271821     5.41253216     1.26949423    -1.16243191     0.03772607
O       1.08748909     5.37458979     5.19412858    -1.26949423     1.16243191    -0.03772607
O       0.21533362     3.83646221     2.86512366     0.44664449    -0.26073284     0.30301053
O       5.71093548     2.47084573     7.74153708    -0.44664449     0.26073284    -0.30301053
O       3.17845668     2.47078695     2.43824043     0.44717980     0.26103957    -0.30329207
O       2.74781242     3.83652099     8.16842014    -0.44717980    -0.26103957     0.30329207
O       0.21531750     0.68280821     2.43820656     0.44664449    -0.26073284    -0.30301053
O       5.71095160     5.62449973     8.16845401    -0.44664449     0.26073284     0.30301053
O       2.74779630     0.68286699     7.74157089    -0.44717980    -0.26103957    -0.30329207
O       3.17847280     5.62444095     2.86508979     0.44717980     0.26103957     0.30329207
