# total energy = -19073.14274708 eV

CRYSTAL
PRIMVEC
        5.17600016     0.00000000     0.00000000
        0.00000000     5.50899976     0.00000000
        0.00000000     0.00000000     9.26300011
PRIMCOORD
22 1
Ti      2.02649798     3.49136698     3.25490899     0.29004086     0.39823060     0.54206048
Ti      3.52890798     2.10856798     5.86062302     0.33284717     0.68702833    -1.72275031
Ti      4.55841401     2.33781899     1.30008801    -1.59187752    -0.25654143    -0.22612218
Ti      0.53703199     2.96463098     8.08726499    -0.85420640     1.65460423    -0.69079834
Ti      1.90331901     0.62639600     1.43789000     0.24765749    -1.25697526    -2.32957357
Ti      3.06273700     5.06641602     8.06441702    -0.80674999     0.81816312     2.76507772
Ti      0.72626598     0.06423302     5.92666201    -0.18763378     0.91094347     0.70484043
Ti      4.57128101     4.93100898     3.44270701    -0.02573392    -0.16189600    -0.59037076
O       3.62678301     3.35231798     4.25406602     0.72166085    -0.21570484     2.21376641
O       0.81071198     1.91849000     0.27038899     1.85511898    -0.13219589    -1.78747118
O       4.15810798     3.65932403     8.94472899     0.16840038    -0.43368639    -0.15506329
O       3.40062901     0.81435002     0.15909402     0.66526676     0.67678299    -0.84665019
O       1.62340801     4.83072698     0.02802300    -0.19479765    -0.52913940    -0.46038473
O       4.25848899     0.76360298     4.70215802    -0.19613411    -0.12383852     0.93157633
O       1.20739098     5.07173197     4.14120902     0.04608936    -0.69415774     1.84856292
O       0.52065898     3.51024501     2.20900402    -2.48440288     0.26377651     0.59680546
O       4.89948801     1.63843902     6.98525099     1.11983977    -0.72920755     0.16422105
O       2.77427502     2.23547098     2.08624601     0.06855926    -1.23226001     0.06933034
O       1.59350098     4.06956202     7.02460198     0.84436268     0.44976941    -1.96478943
O       0.08038001     0.71903700     2.04922398    -0.34087930    -0.46209194     1.68521811
O       2.26573600     1.17830898     6.79531398    -0.56157516    -1.22051264    -0.00106418
O       2.92824698     4.78314701     2.37470302     0.88414691     1.58890840    -0.74642135
