# total energy = -19960.01020144 eV

CRYSTAL
PRIMVEC
        5.93400000     0.00000000     0.00000000
        0.00000000     9.29699974     0.00000000
        0.00000000     0.00000000     4.64899994
PRIMCOORD
24 1
Ti      4.45124498     6.81698400     2.15368298     0.26150546    -0.03358530     0.06712561
Ti      4.42875701     2.30962401     2.27152801    -0.76032228     3.24104360    -0.07103884
Ti      1.47323401     7.01369299     2.40041399    -0.25656354    -0.28503903    -0.60825407
Ti      1.41262697     2.24717299     2.41890599     0.90497286     1.34298770    -0.91986469
Ti      2.91528398     4.69935301     4.56883801     0.90333583    -0.80520167     1.16690743
Ti      2.99777700     0.12466199     0.09048799     0.55487615    -0.75367238    -0.71569511
Ti      0.07068898     4.58531399     4.55951999    -1.38612902    -0.16093466     0.57359096
Ti      0.00706801     0.04964201     0.00207300    -0.65329827    -0.84789152     0.01819262
O       4.45342302     5.52427801     0.84090498     0.05596574     0.24997483     0.48801562
O       4.44435498     0.90690900     1.09219999     0.34741299    -1.24197570    -1.65942351
O       1.55024698     5.59997300     0.83261600    -0.37197372    -0.10222530     0.08495545
O       1.46612198     0.84371502     1.18731002     0.04716793    -0.77745740    -1.49931442
O       4.38068099     8.47452500     3.84292800     0.16680398     0.43528998     0.33476393
O       4.54214498     3.67354201     3.73775302    -0.00299045     0.98916854     0.38626983
O       1.52873698     8.64203198     3.76728698    -0.27924145    -1.10133965    -0.44719728
O       1.50121701     3.78346901     3.70613600     0.02843076    -0.59601330     0.00505325
O       2.89536300     5.94784100     3.06836200     0.35053302     0.14218386     1.00478749
O       3.09910201     1.52365000     3.19898797    -1.58503298    -1.29852945     2.26372965
O       5.85322999     6.11135101     3.33950999     0.52915740     0.52287259    -1.04505098
O       5.83576698     1.46046100     3.32834900     1.01516498    -0.39612770     0.62189763
O       2.92232802     7.74091102     1.48707798     0.28080674     1.93037777    -0.90466047
O       2.93937700     3.34325598     1.45637803     0.51143786    -0.93491413    -0.28796083
O       5.93310400     7.71929302     1.28283599     0.05361858     0.64665917     0.86446922
O       0.18330499     3.21621899     1.38750301    -0.71563881    -0.16565135     0.27870074
