# total energy = -19076.05382305 eV

CRYSTAL
PRIMVEC
        7.60600008     0.00000000     0.00000000
        0.00000000     7.60600008     0.00000000
       -1.89786986    -1.89786986     4.85670466
PRIMCOORD
22 1
Ti      3.80891100     6.64082502     1.13341501     0.96858480    -0.92152202     0.07469829
Ti      3.74297102     2.77983699     1.21391197     0.61481656     0.56291728     0.57566867
Ti      0.10858902     6.70389601     1.04876602    -0.96649578     0.69129045     1.03515686
Ti      0.01789598     2.94998399     1.11616002    -1.01710051    -1.35533954     0.60309438
Ti      5.64568624     2.88671423     3.55443882    -0.22772449    -0.70562615    -0.47296437
Ti      6.04324420    -0.87199478     3.67041082     0.24170770     0.31480882    -0.87623537
Ti      1.86522820     2.76496023     3.69961680     0.28534962    -0.39999669     0.37267100
Ti      1.48708825    -0.96505478     3.76640881     1.15828575     0.08057557    -0.76191122
O       3.98779800     4.65379900     0.87037000    -0.87511180     0.79502679    -0.16557756
O       3.75440400     0.83420798     0.80753200    -0.48589163     0.79793162     1.14690835
O      -0.08321402     4.80259401     0.64704100     0.36088197     0.10419219     0.93990542
O       0.02831601     1.02698302     0.68534201     0.54838771    -0.14476036     1.84176750
O       5.58609120     4.92633222     4.05289881     0.30378984    -1.50545165    -2.02236776
O       5.47503722     0.91788122     4.07006284     0.63219799     0.83160203    -0.64394665
O       2.06543421     4.72854724     4.10866483    -0.94525589     0.07906737    -0.38784463
O       2.19851425     0.79224724     4.15828584    -1.37761353     0.03837579    -0.91414938
O       3.75328924     2.74295122     3.21941580     0.51215314     0.43333466    -0.06260304
O       0.01132122     2.61415324     3.33621983    -0.70261719     0.73878671    -0.03571007
O       5.86501201     6.75702800     1.74963599    -0.80695337    -0.18887511     0.18533778
O       5.65062098     2.69504602     1.62698398     1.05414060     0.51924013     0.44825735
O       1.89253100     6.74362098     1.81549898     0.18066840    -0.76256763     0.37261649
O       1.81145300     2.95826403     1.76127101     0.54379983    -0.00301076    -1.25277177
