# total energy = -19910.49736307 eV

CRYSTAL
PRIMVEC
        7.70151986     0.00000000     0.00000000
        0.00003031     5.46449731     0.00000000
        0.00000000     0.00000000    11.96530133
PRIMCOORD
24 1
Ti      2.79144861     3.23825602     4.43904145     0.57955926    -0.66643096     1.56630634
Ti      4.91010169     2.22624128     7.52626001    -0.57955926     0.66643096    -1.56630634
Ti      6.64207578     2.22624319     1.54356144     0.57957263     0.66602421    -1.56624335
Ti      1.05947452     3.23825438    10.42174008    -0.57957263    -0.66602421     1.56624335
Ti      2.79143346     0.50600750     1.54360941     0.57955926    -0.66643096    -1.56630634
Ti      4.91011684     4.95849000    10.42169211    -0.57955926     0.66643096     1.56630634
Ti      1.05945937     0.50600547     7.52621198    -0.57957263    -0.66602421    -1.56624335
Ti      6.64209093     4.95849204     4.43908942     0.57957263     0.66602421     1.56624335
O       2.43759040     1.92414242     6.10580170     0.73487581     1.46816653    -1.58311108
O       5.26395990     3.54035495     5.85949976    -0.73487581    -1.46816653     1.58311108
O       1.41323607     1.92416444     0.12318949    -0.73536637     1.46949399    -1.58515871
O       6.28831436     3.54033293    11.84211158     0.73536637    -1.46949399     1.58515871
O       5.26394481     0.80810623     0.12315064    -0.73487581    -1.46816653    -1.58311108
O       2.43760549     4.65639108    11.84215042     0.73487581     1.46816653     1.58311108
O       6.28829921     0.80808428     6.10584048     0.73536637    -1.46949399    -1.58515871
O       1.41325102     4.65641316     5.85946091    -0.73536637     1.46949399     1.58515871
O       0.27983262     3.32381703     3.23212642    -1.88698242     0.54393559     0.16943679
O       7.42171768     2.14068035     8.73317504     1.88698242    -0.54393559    -0.16943679
O       4.13060116     2.14062939     2.75056237    -1.88694694    -0.54397235    -0.16966279
O       3.57094914     3.32386798     9.21473889     1.88694694     0.54397235     0.16966279
O       0.27981746     0.59156831     2.75052411    -1.88698242     0.54393559    -0.16943679
O       7.42173284     4.87292900     9.21477708     1.88698242    -0.54393559     0.16943679
O       3.57093405     0.59161926     8.73321317     1.88694694     0.54397235    -0.16966279
O       4.13061625     4.87287811     3.23208823    -1.88694694    -0.54397235     0.16966279
