# total energy = -19960.16111367 eV

CRYSTAL
PRIMVEC
        5.93400000     0.00000000     0.00000000
        0.00000000     9.29699974     0.00000000
        0.00000000     0.00000000     4.64899994
PRIMCOORD
24 1
Ti      4.43202097     6.81174001     2.35784899     1.97165608     2.96097606     0.38185781
Ti      4.49198199     2.41898700     2.37855998    -0.98014397    -2.36669208     0.27300703
Ti      1.50959198     6.81894799     2.15536699    -1.80547122     3.17238741     0.83549802
Ti      1.49075899     2.43654198     2.32135502     0.97562680    -2.54369306     0.38734995
Ti      2.92993299     4.68700202     4.59739400     0.44113127    -1.45089256     0.25534895
Ti      2.97498502     9.21730798     0.09325902    -1.01562932     0.23733811    -1.35095632
Ti      5.90330502     4.64023799     0.02746298    -0.27761805    -0.48562809    -0.62036371
Ti      5.89648700     0.04369200     0.04716298     1.36836166    -0.93633595    -0.72992232
O       4.45547998     5.59427001     0.85438101     0.18755433    -0.51843075    -0.30103284
O       4.49544101     0.85894998     0.90725799    -1.21693829     1.43805530     0.85532741
O       1.48644201     5.63780002     0.70553700    -0.24485884     0.22180324     0.79902871
O       1.48313799     0.86972398     0.91543198     0.36636434     1.12394582     0.84140462
O       4.44129200     8.29611501     3.79565601    -0.38593790    -0.19327838    -0.60646278
O       4.44951700     3.79666399     3.70055101     0.45068421     0.73202805     0.97085534
O       1.41575499     8.41541997     3.82389598     1.26980842    -0.61802812    -0.88800408
O       1.52288201     3.78501902     3.73179300    -0.61364439     0.02626409     0.75857367
O       2.95151400     5.94558200     3.13993603    -0.28874142     0.45294550    -0.21056726
O       3.05179298     1.59874301     3.18663798    -0.39196225    -1.10643660     0.67652640
O       0.08115399     6.01370299     3.16687797    -0.43193186    -0.44795704    -0.07797439
O       5.92823102     1.48974900     3.30946097    -0.33150891     0.69260197    -0.79630745
O       3.00556898     7.86877998     1.36490402    -0.24753048    -1.39420409     1.53706543
O       2.86567198     3.35633502     1.52304801     1.18561710     1.07286724    -1.93203947
O       5.89776200     7.90404901     1.46677800     0.45863972    -1.40884704     0.56643789
O       0.04974197     3.28692199     1.47942999    -0.44352754     1.33921074    -1.62465087
