# total energy = -19517.61908795 eV

CRYSTAL
PRIMVEC
        5.17600016     0.00000000     0.00000000
        0.00000000     5.50899976     0.00000000
        0.00000000     0.00000000     9.26300011
PRIMCOORD
23 1
Ti      1.81436199     3.36202002     3.41067898     0.54816531    -1.78276348     3.06004250
Ti      3.37893999     2.17464602     5.77803803    -0.45422539     1.30537167    -2.54409929
Ti      4.36687603     2.02360000     1.54129700    -0.32334128     0.61431596    -1.45885193
Ti      0.83384899     3.34302801     7.78056301    -0.46798312     0.26479698     0.62531566
Ti      1.92959298     0.36688801     1.35858501     1.11741008    -0.35952572    -1.50694752
Ti      3.28588100     5.15621999     7.93929401    -0.05861603    -0.72704628     1.47238108
Ti      0.75196997     0.46392398     5.89847401    -0.32916355     1.01805001    -2.83849894
Ti      4.46758698     4.95114698     3.42612900    -0.32330580    -1.08574641     3.10040678
O       1.80041500     1.85419401     4.63161600    -0.43928419     0.05542735     0.08540822
O       3.56439301     3.60342597     4.49566200    -0.13375835    -0.63586773     0.10516767
O       4.95439602     2.77964702     9.15399600     0.38312948    -0.16135195     0.58472461
O       3.59883499     0.64157497     0.31709402    -0.03034751     0.27691460    -0.86049507
O       1.72837698     4.80600900     9.02556198     0.10281228    -0.59420144     0.73378874
O       4.22144002     0.67932801     4.81855903     0.52827474    -0.05528851    -0.60842299
O       0.96759901     4.58341800     4.61573999    -0.22115815     0.60889710     0.16085239
O       0.16274100     3.40721700     2.52443901    -0.39403096    -0.76619931    -0.88074534
O       5.15351002     2.24456600     6.39475098     0.83601636     0.35703586     1.82568087
O       2.55407098     2.06934002     2.15995998     0.48947703     0.05604441    -1.38213713
O       2.61341001     3.40577700     7.06354302     0.22143917     0.22211254     0.99819363
O       0.15036101     0.51823799     2.16152698     1.10137256     1.13892790    -0.65415394
O       0.07680399     4.98978798     7.36334199    -2.01291715     0.24832829    -0.60688316
O       2.48206102     0.71626099     6.71797102    -0.10774443    -0.19685530     1.27469017
O       2.77476001     4.77791303     2.52179799    -0.03222082     0.19862319    -0.68541676
