# total energy = -19518.40947152 eV

CRYSTAL
PRIMVEC
        7.60600008     0.00000000     0.00000000
        0.00000000     7.60600008     0.00000000
       -1.89786986    -1.89786986     4.85670466
PRIMCOORD
23 1
Ti      3.84470201     6.71615499     1.14846301    -0.02791139    -0.83154598    -0.43437544
Ti      3.81854902     2.82211402     1.20103900    -0.32207733     1.05679707     0.19050699
Ti      0.09092398     6.63136502     1.19104601    -0.52728743     0.30867210     0.38033160
Ti     -0.02821901     2.75543298     1.23091603     0.59976197    -0.43644749    -1.01379612
Ti      5.49409421     2.82084722     3.80762082     1.36218742     0.40627122     0.21849474
Ti      5.68288423    -0.87858976     3.52564380     0.67046039    -0.71770109     1.11039842
Ti      2.01743524     2.93788922     3.63308281    -1.40495516    -0.86774790     0.71960165
Ti      1.94139120    -0.92199177     3.55593782    -0.86519530     0.76095194    -0.21019882
O       3.85634301     4.69036801     0.72897003     0.10104131     0.59878135     0.88439142
O       3.75939600     1.00996399     0.64606600    -0.17218659    -0.43038123     1.56575844
O      -0.09957301     4.62151501     0.95128998     0.06662913     1.15909616    -0.82282068
O       0.15526299     0.88291801     0.75671997     0.14075767     0.73752173     0.09760785
O       5.60832522     4.71840424     4.16227382     0.67398589    -0.63757031    -1.32240498
O       5.52935022     0.92851520     4.02948579     0.52245273    -0.24100013     0.43640636
O       1.90258520     4.81796222     4.02651483    -0.63583353    -1.01180146     0.51948593
O       1.81800924     0.99529922     3.94691980     0.07404343    -0.05787890     0.34546846
O       3.76420521     2.83978325     3.43839480     0.38331126     0.08838119    -2.03896244
O       3.79154224    -1.06814280     3.36229583     0.39251298     0.63946548    -1.62087597
O      -0.02980977    -0.81861879     3.19606983     0.27398200    -0.57142892    -0.31021168
O       5.70814699     6.78291700     1.53166302    -0.96829581    -0.36058218     0.69359082
O       5.84805199     2.69400201     1.81605298    -1.54847985     0.06883051     0.36739869
O       1.93255902     6.39648499     1.55361302     0.56907507     0.78914282     0.48616365
O       1.82635902     2.96306901     1.70610301     0.64202115    -0.44982598    -0.24195889
