# total energy = -19067.75399921 eV

CRYSTAL
PRIMVEC
        5.17600016     0.00000000     0.00000000
        0.00000000     5.50899976     0.00000000
        0.00000000     0.00000000     9.26300011
PRIMCOORD
22 1
Ti      1.45201300     3.62195702     3.38736999     0.74184067    -1.92286860    -0.11603084
Ti      3.73448402     2.55627098     5.85355601    -0.66563109    -0.64431741     1.18820311
Ti      4.10364897     2.32653598     1.27411800     0.39194914    -1.16798009     1.07016372
Ti      1.34593101     2.11431299     7.88164899     0.40364046    -1.48717444     2.13308156
Ti      1.75288800     0.47225302     1.34101400    -0.56624686     2.59439960    -2.12414055
Ti      3.48659099     5.40541702     7.89994699    -0.37025442     0.14582171     1.55192873
Ti      0.79234498     5.40911300     6.16721699    -0.94777171     1.99765945    -1.35118566
Ti      4.04467201     5.24343401     3.55185098     0.61430234     0.33698022    -0.28069798
O       3.11911200     3.78053901     4.44310798     1.59287716    -2.14499066     2.88080698
O       1.18794800     2.07301700     0.43085299    -1.94313687     2.64964363    -0.90812066
O       5.04156601     3.93601800     6.55734498    -0.47799474    -0.96695909     0.90199192
O       3.67050099     0.54138299     0.51615600    -1.15805332    -0.05788172    -2.90594029
O       1.64283897     0.12002798     8.54932002    -0.31057318    -2.05495882     1.38748322
O       4.10969699     0.74708101     5.18824601     1.52157684     0.20755135    -2.14790218
O       1.22038101     5.17465700     4.24273999    -2.41275418     1.38196281     2.02988824
O       4.85984602     3.62357800     2.73784900     0.66849093    -0.14156216    -1.29433881
O       4.96722100     1.32344198     7.46595698    -3.16700943    -1.63737809    -1.89393545
O       2.55024900     2.05245402     2.30992299     0.32264374    -0.69104337     1.01108361
O       2.86227402     3.03681700     7.79937902     2.82671866     3.33244790    -0.94456195
O       4.97348699     1.01230602     2.13916802     2.00958732    -1.41034317     3.03717870
O       2.40530502     0.87740700     6.70226800    -0.04522546     1.29873848    -2.10597673
O       2.49339398     4.58787098     2.25806801     0.97102452     0.38225248    -1.11897871
