# total energy = -4986.70921717 eV

CRYSTAL
PRIMVEC
        3.48422755     0.00000000     0.00000000
        0.34754579     3.46685066     0.00000000
       -1.91591757    -1.73345329     4.45223232
PRIMCOORD
6 1
Ti      0.26052583     2.60026988     1.11305786     0.00150461    -0.00162854     0.00091506
Ti      1.65532963    -0.86687278     3.33917393    -0.00150461     0.00162854    -0.00091506
O       0.08692318     0.86670718     0.72523219     0.00065229     0.00304342     1.81148889
O       1.82893218     0.86668982     3.72699970    -0.00065229    -0.00304342    -1.81148889
O      -0.08690389    -0.86668974     2.95134825     0.00303905     0.00066232     1.81373475
O       2.00275920     2.60008669     1.50088363    -0.00303905    -0.00066232    -1.81373475
