# total energy = -18979.61119571 eV

CRYSTAL
PRIMVEC
        7.60600008     0.00000000     0.00000000
        0.00000000     7.60600008     0.00000000
       -1.89786986    -1.89786986     4.85670466
PRIMCOORD
22 1
Ti      5.23823802     4.85193201     0.46865001   -12.19898734     4.36559775    -4.36100858
Ti      5.62311821     3.53747721     2.80510182   -14.68974059     6.52220723    -8.03011042
Ti     -0.52473978     4.24611624     4.81878980     8.21863458    14.19271609     5.45251530
Ti      0.21420402     3.22806700     1.01745799    15.99660659   -15.49538424    11.29443614
Ti     -1.80348179     2.91755421     4.64333981   -32.96967404    42.20277606    37.00115578
Ti      5.68210925     1.80062423     3.65234783   -45.49369934   -47.49811128   -31.71744349
Ti     -0.58340580     2.18572525     4.20135282    74.12042989   -11.19991747    -1.18615626
Ti     -0.69011677    -0.09959280     4.22429879    15.10782938   -10.33217189    -5.29396559
O       4.04709300     4.19016898     1.87008600     2.55351262     0.48747131    -2.81150749
O       3.90304100     7.23879600     0.51078898     1.02671206    -0.95487567    -0.08230464
O       1.14761099     4.91119198     1.45082701    -1.10062925     0.29093920     1.41057020
O       1.58447602     0.15268499     0.40858299    -0.07931162     1.09548524     0.29593177
O       6.52557498     4.66877800     2.01754298     6.72920836    18.66308658     7.19401745
O       6.13104698     1.86900298     2.09219201     1.10009112    -2.36173525    -7.72264314
O       2.82916801     5.21648698     0.01682397     2.94606288    -0.25246751    -2.72805305
O       2.04918402     2.44978898     0.70156002     1.34908353     3.30452545     0.59381964
O       3.57222822     1.78710725     3.44725481     1.60364777     2.55654112     3.64970929
O       0.52880100     2.06136198     2.24747198     1.20398609    -0.12095399     2.59075841
O       4.92401823     4.70299624     4.05386483     0.39513371    -0.87667194     2.64737566
O       6.40027797     3.81133702     1.19561498   -13.68716708    -5.20322619    -9.02361745
O       0.75127522    -0.65335779     3.13495583    -0.93415232    -0.31212664    -0.74026870
O       5.38778123    -0.22888176     4.46153779   -11.19757700     0.92629554     1.56678868
