# total energy = -39036.41529409 eV

CRYSTAL
PRIMVEC
        7.60600008     0.00000000     0.00000000
        0.00000000     7.60600008     0.00000000
       -3.79573973    -3.79573973     9.71340985
PRIMCOORD
46 1
Ti      2.03940943     4.81991345     6.02432664    -0.08383728     0.49783903     0.45544307
Ti      3.74083701     6.79951199     1.15575201     0.63627114     1.12386175     0.14354449
Ti      1.82636146     0.82782145     6.07585962     0.83093637    -0.74891712    -0.03453430
Ti      3.68497600     2.90605302     1.27458098     0.31697934    -0.85914472    -0.27965565
Ti     -1.79243156     4.71176947     6.06967862    -0.26384105    -0.90818211     0.89697826
Ti     -0.04043401     6.67196901     1.16383498    -0.35837926     0.15356434     1.01762732
Ti     -1.86579553     0.91559946     6.04262263    -0.48244146    -0.18797599     1.28196382
Ti     -0.04622099     2.89661101     1.18497000    -0.05413511    -0.26189087     0.53218847
Ti      3.82402245     0.92278543     8.45870260     0.50206336     0.20855922    -0.23855244
Ti      5.59506499     2.73156698     3.62263400    -0.41342506     0.85715520    -0.85255293
Ti      3.78087244    -2.84211555     8.51475660     0.64093692     0.33678121    -0.01356849
Ti      5.71727398    -1.00569200     3.77957897     0.68021336    -0.26806923    -3.24127012
Ti      0.04353943     0.95241443     8.43707364    -0.85063283    -0.17622810     0.59341237
Ti      1.75852199     2.76398300     3.54027200     0.78226871     0.64739425     0.12493509
Ti      0.07945644    -2.78827054     8.50840462    -0.74373403     0.60501654     1.03050650
Ti      1.98920702    -0.96695897     3.57888898    -1.39445323    -0.13706582     1.26227277
O       2.17116144    -1.00873757     5.63410763    -0.39030492     0.57042413    -1.13234151
O       3.75164498     1.06044401     0.99922402     1.00614940    -1.60027474    -2.12674765
O      -1.84565356     2.72415347     5.63795962     0.36570922     0.72824904     1.13782567
O       0.25850700     4.82365098     0.75641099    -0.66433294    -0.59955371     0.16308231
O      -1.99128256    -1.09496558     5.60359162    -0.04597571     1.15729099     0.55186821
O      -0.15665800     1.00600199     0.81903800    -0.26596067    -0.89588503    -0.25558832
O       3.76947243     2.88240943     8.86518762    -0.13203571     0.06369319     0.16786559
O       5.65860299     4.58053801     4.07769299    -0.00393996     1.64202279     0.38155828
O       3.76878344    -0.93480056     8.99999663     0.08210050     1.07474903    -0.97030178
O       5.91552600     0.94064902     4.06675198    -0.48216867    -1.53415263     0.01514612
O      -0.04495355     2.84714643     8.81809063     0.33959529     0.68475470     0.98012109
O       2.01354198     4.61769302     4.07457000    -0.39117626     0.64845174     0.05031882
O      -0.01099355    -0.83112854     9.06104860     0.24652338     0.13069591    -0.00165271
O       1.76225502     1.04780800     4.15522598    -0.35341934    -1.12196839     0.43093968
O       1.84366645     1.02248147     8.02818362     1.66101682     0.41926841     0.62301709
O       3.64732102     2.71930102     3.23791102     1.67824039     0.35135989     0.78108935
O       1.97283444    -2.46780757     8.06621665    -0.27304920    -1.34809622     0.28600577
O       3.69291101    -0.61648700     3.21356802     1.81364682    -0.91330786     0.22166851
O      -1.87178455     0.84373545     8.03177261    -0.81792375     0.60121233    -0.20042271
O      -0.02356500     2.93033998     3.11652898    -1.42625419     0.15262897     0.57425585
O      -1.83418153    -2.64720057     8.12624763    -0.17965899    -0.63902299    -0.38147060
O       0.03500597    -0.94172600     3.20446501    -1.01941193    -0.43190255     0.09075638
O       3.86752744     4.68172146     6.53096560     0.04818018    -0.75991836    -0.24413379
O       5.58111699     6.46819798     1.68370998     0.54911456    -0.09329303    -0.22676316
O       3.78817747     0.89227143     6.50706563     0.47312095     0.32635256    -0.40804014
O       5.53885398     2.92610000     1.71547199     1.37836737     0.47166339    -0.75351683
O       0.10369847     4.96214344     6.58565564    -0.52006931    -1.16246508    -1.16605948
O       1.87084499     6.88943000     1.53102398    -0.20941463    -1.08153906     0.48979739
O       0.05575443     0.43542143     6.56811061    -1.04695925     0.95457202    -1.45516857
O       1.85147600     2.53228401     1.60344702    -1.16449985     1.32129298    -0.30184659
