# total energy = -19073.76677664 eV

CRYSTAL
PRIMVEC
        5.93400000     0.00000000     0.00000000
        0.00000000     9.29699974     0.00000000
        0.00000000     0.00000000     4.64899994
PRIMCOORD
22 1
Ti      4.43619301     6.94240901     2.14496500     0.00417522     0.05646967     0.44379417
Ti      4.42956702     2.32092300     2.20321498     0.33761554     2.10616236     0.78453848
Ti      1.54338699     6.92118498     2.64159700    -1.07662954     1.08279170     1.00188420
Ti      1.68204201     2.48784799     2.06907601    -0.96288003     0.59168639     0.71061075
Ti      3.06587598     4.66976698     4.49231098     0.27509426    -1.42050906     0.72031127
Ti      2.98327898     0.02711700     0.03078801    -0.83040595    -0.43969968    -0.68682316
Ti      0.06960401     4.67573498     4.48278299    -0.96128929    -1.01886274     0.27492662
Ti      5.85782102     9.15383100     0.36108399     0.59382735    -0.57032849    -0.01256550
O       4.39225198     5.66896099     0.74476602     0.04334599     0.01314734     1.25862308
O       4.27900202     0.80044002     1.21024499     0.72344776    -0.91509966    -1.33293056
O       1.46022202     1.03805198     0.95956399    -1.03706256    -0.96938364    -0.68766108
O       4.37950701     8.23655902     3.95752700    -0.02098124     1.49905166     0.17833281
O       4.41545497     3.80298300     3.45159999     0.49147144    -0.83324908     0.93167840
O       1.18948102     8.11713800     4.07686800     1.64224904     0.89849239    -0.67417769
O       1.41268502     3.79961998     3.59670003     0.47395605    -0.07928719    -0.48473334
O       3.05471902     5.90675801     3.21421299    -0.54602152     2.08507262    -2.19194725
O       2.75905499     1.43442802     3.32087400     0.61289286    -0.10009308    -0.35091020
O       5.69274402     6.11849500     3.31261598     1.42957065    -0.44867309    -1.00948490
O       2.80271602     7.91087698     1.59776498     0.14718568    -0.42331764     0.11949155
O       3.12642603     3.18743699     1.15039298    -0.13016369     0.22867683     0.15084771
O       0.10650301     8.04509999     1.74999398    -0.97060260    -0.52098257    -0.24602047
O       5.91287900     3.30607202     1.19644902    -0.23879515    -0.82206503     1.10221562
