# total energy = -4990.35840579 eV

CRYSTAL
PRIMVEC
        3.73174098     0.00000000     0.00000000
        0.37223483     3.71312967     0.00000000
       -2.05202100    -1.85659478     4.76851112
PRIMCOORD
6 1
Ti      0.27903313     2.78498850     1.19212755     0.00154292    -0.00154292     0.00000000
Ti      1.77292135    -0.92845391     3.57638301    -0.00154292     0.00154292     0.00000000
O       0.09309805     0.92827655     0.77675141    -0.00019103     0.00017278     0.22473867
O       1.95885632     0.92825795     3.99175924     0.00019103    -0.00017278    -0.22473867
O      -0.09307739    -0.92825786     3.16100687     0.00017278    -0.00019103     0.22473867
O       2.14503171     2.78479231     1.60750378    -0.00017278     0.00019103    -0.22473867
