# total energy = -19944.49280703 eV

CRYSTAL
PRIMVEC
        5.70103801     0.00000000     0.00000000
        2.06059299     5.70702000     0.00000000
        0.00000000     0.00000000    10.36838487
PRIMCOORD
24 1
Ti      3.28745766     3.38197467     3.84659685     0.70596683    -2.68801299     0.98092276
Ti      4.47417355     2.32504517     6.52178813    -0.70596683     2.68801299    -0.98092276
Ti      5.75626543     2.32504711     1.33755424    -1.78861660    -0.68706767     0.52798112
Ti      2.00536581     3.38197290     9.03083086     1.78861660     0.68706767    -0.52798112
Ti      2.25716131     0.52846483     1.33759581     0.70596683    -2.68801299    -0.98092276
Ti      5.50446992     5.17855513     9.03078929    -0.70596683     2.68801299     0.98092276
Ti      0.97506935     0.52846273     6.52174656     1.78861660     0.68706767     0.52798112
Ti      6.78656190     5.17855729     3.84663842    -1.78861660    -0.68706767    -0.52798112
O       2.52998440     2.00953869     5.29090744     1.46162975     1.94199325    -0.90104215
O       5.23164681     3.69748115     5.07747755    -1.46162975    -1.94199325     0.90104215
O       1.77171599     2.00956171     0.10674836    -0.01733953    -0.60149412     1.10458721
O       5.98991529     3.69745818    10.26163634     0.01733953     0.60149412    -1.10458721
O       4.20135044     0.84397119     0.10671472    -1.46162975    -1.94199325    -0.90104215
O       3.56028077     4.86304865    10.26166998     1.46162975     1.94199325     0.90104215
O       4.95961891     0.84394816     5.29094108     0.01733953     0.60149412     1.10458721
O       2.80201225     4.86307169     5.07744390    -0.01733953    -0.60149412    -1.10458721
O       1.46050132     3.47133298     2.80075943     0.44917626     1.64744113     1.54821554
O       6.30112989     2.23568686     7.56762556    -0.44917626    -1.64744113    -1.54821554
O       3.86486664     2.23563370     2.38346602     1.15276636     1.19587272     0.38090059
O       3.89676457     3.47138614     7.98491879    -1.15276636    -1.19587272    -0.38090059
O       0.43020495     0.61782302     2.38343289     0.44917626     1.64744113    -1.54821554
O       7.33142626     5.08919682     7.98495192    -0.44917626    -1.64744113     1.54821554
O       2.86646820     0.61787618     7.56765857    -1.15276636    -1.19587272     0.38090059
O       4.89516302     5.08914366     2.80072636     1.15276636     1.19587272    -0.38090059
