# total energy = -19946.83066760 eV

CRYSTAL
PRIMVEC
        6.29112694     0.00000000     0.00000000
        0.00002925     5.47826872     0.00000000
        0.00000000     0.00000000    10.33951714
PRIMCOORD
24 1
Ti      2.28024825     3.24641686     3.83588724     0.24650435    -0.39895411     0.35095597
Ti      4.01090800     2.23185163     6.50363030    -0.24650435     0.39895411    -0.35095597
Ti      5.42570272     2.23185340     1.33383022     0.24686688     0.39911583    -0.35091612
Ti      0.86545353     3.24641527     9.00568745    -0.24686688    -0.39911583     0.35091612
Ti      2.28023386     0.50728262     1.33387168     0.24650435    -0.39895411    -0.35095597
Ti      4.01092239     4.97098605     9.00564599    -0.24650435     0.39895411     0.35095597
Ti      0.86543914     0.50728061     6.50358884    -0.24686688    -0.39911583    -0.35091612
Ti      5.42571711     4.97098800     3.83592870     0.24686688     0.39911583     0.35091612
O       1.99119171     1.92899146     5.27617661     0.91360765     0.93268344    -0.40650853
O       4.29996453     3.54927703     5.06334094    -0.91360765    -0.93268344     0.40650853
O       1.15442912     1.92901360     0.10645114    -0.91339836     0.93277009    -0.40696696
O       5.13672719     3.54925495    10.23306612     0.91339836    -0.93277009     0.40696696
O       4.29995014     0.81014260     0.10641757    -0.91360765    -0.93268344    -0.40650853
O       1.99120611     4.66812588    10.23309968     0.91360765     0.93268344     0.40650853
O       5.13671273     0.81012053     5.27621017     0.91339836    -0.93277009    -0.40696696
O       1.15444340     4.66814802     5.06330737    -0.91339836     0.93277009     0.40696696
O       0.22858888     3.33219361     2.79296163    -0.53210722    -0.01074336     0.13853186
O       6.06256737     2.14607488     7.54655592     0.53210722     0.01074336    -0.13853186
O       3.37415864     2.14602397     2.37683004    -0.53222267     0.01082743    -0.13872238
O       2.91699761     3.33224452     7.96268734     0.53222267    -0.01082743     0.13872238
O       0.22857442     0.59305919     2.37679700    -0.53210722    -0.01074336    -0.13853186
O       6.06258182     4.88520930     7.96272037     0.53210722     0.01074336     0.13853186
O       2.91698316     0.59311010     7.54658890     0.53222267    -0.01082743    -0.13872238
O       3.37417309     4.88515839     2.79292859    -0.53222267     0.01082743     0.13872238
