# total energy = -19958.71373611 eV

CRYSTAL
PRIMVEC
        5.93400000     0.00000000     0.00000000
        0.00000000     9.29699974     0.00000000
        0.00000000     0.00000000     4.64899994
PRIMCOORD
24 1
Ti      4.46693799     7.00808303     2.27986202    -1.02850104    -0.64116086    -0.18509610
Ti      4.49108700     2.12766599     2.46402898    -3.04753125     1.95106847    -0.72708510
Ti      1.40850098     6.95608898     2.39086700     1.12446056    -0.88114643    -0.30086598
Ti      1.39445799     2.39410901     2.00841198     2.43620162     2.02986099     1.37796577
Ti      2.94060501     4.46715998     0.07398300    -1.64920080     3.03249569    -0.65594831
Ti      3.11839899     0.01233300     4.62692701    -0.06261975    -2.82894652     0.52003820
Ti      5.87483100     4.61776499     0.09057901     1.06279494     2.58859071    -0.69702478
Ti      0.09775698     0.30600997     4.49755301     0.19474520    -4.25399794     1.72034376
O       4.42535302     5.48368001     1.02870697     0.24108086     0.55269045    -0.15239423
O       4.50172600     0.97771900     0.91060398    -0.84121307    -0.37614199    -0.25605729
O       1.44602499     5.52770099     0.96381598    -0.33448188    -0.59680623    -0.02059197
O       1.52088801     1.12601701     0.75692403     0.42506650    -0.64739399     0.10816635
O       4.45703698     8.25262399     3.83633900    -0.31285401     2.33019577     0.52881621
O       4.35748699     3.76854198     3.86866798     1.37775159    -1.85333721    -2.23582340
O       1.22455299     8.41823599     3.82800102     1.59698321     0.55206645     0.23454434
O       1.38553601     3.66292402     3.89346702     0.67015495    -0.72455154    -0.98713352
O       2.91735201     6.24344598     3.24671802     1.00892414    -1.07291995     0.73379697
O       2.98077300     1.32692402     3.24205099     0.15701501     0.55901434    -0.97993828
O       0.09304502     5.97304302     3.27575402    -1.39055389     0.01711430     0.09539310
O       0.10949402     1.38455402     3.05228999     0.29252557     0.40020110    -0.06724723
O       2.92140101     7.86605699     1.38760800     0.75873874     1.44421489    -0.50880325
O       3.12252303     3.26861299     1.39692703    -1.18921896    -2.22217958     2.45389031
O       0.08503698     7.96274302     1.56893397    -1.63499467     0.37315411    -0.60028828
O       5.80741001     3.14063401     1.39877698     0.14472668     0.26791471     0.60134217
