# total energy = -19960.51820406 eV

CRYSTAL
PRIMVEC
        5.93400000     0.00000000     0.00000000
        0.00000000     9.29699974     0.00000000
        0.00000000     0.00000000     4.64899994
PRIMCOORD
24 1
Ti      4.44641401     7.01851602     2.23103901     1.39692997     0.48105409    -0.02876088
Ti      4.45689601     2.41662899     2.39024400    -0.33520410    -0.74058186    -1.85411599
Ti      1.49399703     6.82681198     2.32860401    -1.20043926     1.39879994     0.34149148
Ti      1.50328700     2.28601402     2.45898598     0.63209618    -0.10271767    -1.52949250
Ti      2.94604702     4.69009500     4.62542901     1.30858298     0.87506114     0.71667753
Ti      2.92871800     0.00561002     0.04665502    -0.26804043    -1.03141513     0.37823461
Ti      0.05154800     4.57070701     4.61388999    -1.49656540     1.18009822     0.64124674
Ti      5.89791101     0.06681302     4.57940102    -0.23519792    -1.64758614     1.12826605
O       4.50090001     5.64835700     0.86385101    -0.54179206    -1.82140075    -1.00404264
O       4.52966899     0.86812999     1.12419701    -0.67486778    -0.06074928    -1.53723693
O       1.44278701     5.64211700     0.77144200     0.49131357    -0.61843873     0.15993425
O       1.41982199     0.76076702     0.98014099     0.84931976     1.01211796     0.35855358
O       4.49444198     8.38877003     3.67920802    -0.29515992     0.95734213     0.90501579
O       4.39548700     3.79813902     3.62188299     0.18379178     0.38391701     1.19201863
O       1.47138099     8.33406802     3.74771102     0.38662875     0.60519471    -0.00251094
O       1.50521902     3.80727399     3.72579298     0.15759634    -0.81737071    -0.44442049
O       3.03354298     6.08073001     3.27401901    -0.82905792    -0.26394106    -0.53171282
O       2.92151600     1.47250899     3.40111500     0.21635713     0.42204186    -0.68262300
O       0.04761600     5.91921199     3.05808802     0.30214124     0.22492327     0.70526440
O       5.91891099     1.52747902     3.28208002    -0.18645236    -0.17599131     0.58922687
O       3.05353001     7.85944302     1.36132102    -0.99103902     0.02126740     0.04889572
O       2.84193298     3.15521099     1.36635402     0.65828853     0.26697934     0.34481977
O       5.91544202     7.87436502     1.40555399     0.64526871    -0.36787718     0.23638628
O       0.00016801     3.27087803     1.41528799    -0.17449801    -0.18072805    -0.13111500
