# total energy = -19074.37384125 eV

CRYSTAL
PRIMVEC
        7.60600008     0.00000000     0.00000000
        0.00000000     7.60600008     0.00000000
       -1.89786986    -1.89786986     4.85670466
PRIMCOORD
22 1
Ti      3.73613601     6.81272999     1.29059500     0.42437256    -0.71554290    -1.70105739
Ti      3.84739600     2.97076198     1.05984101     0.91035263     0.15206821     1.65652921
Ti     -0.05373001     6.53229198     1.08954400    -0.02289722     0.22560667     0.58001898
Ti      0.03387999     2.71708398     1.15794598    -1.23485657     0.05975040     0.97852263
Ti      5.74277720     2.73605721     3.63210479     0.34032908     0.38623357    -1.41256049
Ti      6.13248523    -1.09721378     3.71659683    -0.96651943     0.30848853     0.12713956
Ti      1.97354724     3.01604124     3.57957680    -0.82287467    -0.01534641    -0.15746033
Ti      1.47832825    -0.87286676     3.84379680     0.12985336    -0.54744592    -1.09886753
O       3.55792102     4.80413402     0.55618699     0.68130017     0.41076654     1.97636068
O       4.20879300     1.04611601     0.77893801    -1.11575197    -0.08000453     1.24579147
O       0.13981101     4.53869999     0.63483902     0.24899498     1.98844539     1.21911627
O       7.07823701     0.76360499     0.54034601     1.27586902     0.01318771     2.59749521
O       5.72701920     4.68163420     4.07131482     0.25214792    -0.52003486    -0.67254042
O       5.51388222     0.74063420     4.15416979     0.94649439     0.64028797    -2.61730531
O       1.98371321     4.91790322     4.21000683    -0.11869116    -0.77164311    -0.56141061
O       1.69661624     0.97369122     4.00736983     0.35229963     0.43950685    -0.51711409
O       3.83536521     2.98715821     3.13769681    -0.28338658    -0.28876045     0.34083559
O      -0.03271279     3.10395922     3.25346582     1.06247998    -1.30009474    -0.69365741
O       5.73815399     6.37877401     1.87727201    -0.36694747     0.42757076    -0.33356348
O       5.80098299     3.21090198     1.64452800    -1.32154160    -1.28293339    -0.55124318
O       1.90697399     6.57811799     1.94832898    -0.08021639     0.62665701    -0.25392199
O       1.93562402     2.69056400     1.59549798    -0.29081116    -0.15676279    -0.15110816
