# total energy = -19958.43799038 eV

CRYSTAL
PRIMVEC
        7.60600008     0.00000000     0.00000000
        0.00000000     7.60600008     0.00000000
       -1.89786986    -1.89786986     4.85670466
PRIMCOORD
24 1
Ti      3.74723698     6.46922998     1.15353401     1.34753469     0.67934561    -0.90980730
Ti      3.81239701     2.55600698     1.27220799     1.21183645     1.41087333     0.53034730
Ti     -0.02544200     6.72715198     1.18235698    -0.52859458     0.54211962    -1.02088389
Ti      0.01454798     2.79864199     1.25875498    -1.92110637     0.55025330     0.69665686
Ti      5.72306720     2.87743220     3.78992180    -2.93019017     3.44452181    -0.95045337
Ti      5.69996321    -0.57048879     3.61850583     0.12971966    -3.50384849    -1.57179282
Ti      1.75273120     2.69786723     3.68927482     2.43711205     1.55587949    -0.04513368
Ti      1.96887725    -0.86272376     3.53301180    -0.21052458    -1.08585157     0.87958886
O       4.02062202     4.54171799     0.77538199    -1.15148775     1.86232090    -0.00291537
O       3.96293598     0.85005398     0.70519002    -0.48348790    -1.84792349    -0.99474090
O       0.31804399     4.96347898     0.84865002    -0.55346821    -2.99591711     0.57880773
O      -0.06041601     1.12129400     0.66155501     1.09750664    -1.50609417     0.07420515
O       5.58230721     4.81436122     4.10825081     0.14134028     0.39654422    -0.06268712
O       5.30965123     1.10272321     4.10974981     0.83329561     0.34360441     1.07540415
O       1.96744720     4.59476425     3.97084279    -0.77645082     0.41434603     0.61258587
O       1.91737322     0.86164323     4.12576684    -0.20340133     0.43641330    -0.93879882
O       3.85736025     2.95133223     3.09418580    -0.02233004    -0.37534238     1.09501627
O       3.82300321    -0.80966077     3.18777280    -0.78492929    -0.67470760    -0.61491092
O      -0.14402977     2.91910020     3.43296084     2.99226922    -0.55470851    -2.04285432
O       0.02066924    -0.65715379     3.20449480    -0.66079818    -0.29786241    -0.11346771
O       5.65413302     6.70696699     1.60910699     0.91389947    -0.10967816     0.34937063
O       5.73991499     2.44811202     1.47463898     1.83845411     1.82464471     1.74490500
O       1.92411901     7.02014202     1.48066001     0.34878467    -1.31101987     1.01428540
O       1.97799302     2.44303398     1.66779302    -3.06498339     0.80208755     0.61727248
