# total energy = -19517.56486516 eV

CRYSTAL
PRIMVEC
        5.17600016     0.00000000     0.00000000
        0.00000000     5.50899976     0.00000000
        0.00000000     0.00000000     9.26300011
PRIMCOORD
23 1
Ti      1.82004800     3.18638599     3.40237201    -0.18697043     1.35395808     1.70422011
Ti      3.31385500     2.21516899     5.86050400     1.31308010     0.37844570    -1.61002488
Ti      4.30902102     2.04489002     1.50660298     1.36631172    -0.61289851    -0.60862611
Ti      0.86386101     3.33722902     7.87602902    -1.14753133     1.92449817     0.38364344
Ti      1.95325498     0.31678900     1.35568798     0.15332137    -0.77906203    -1.16404013
Ti      3.37269702     5.11267601     7.95686698    -0.57203698    -0.74452516     1.03885539
Ti      0.78917399     0.70555600     5.81680799    -1.51933870    -1.52063531    -1.70407921
Ti      4.51066402     4.83841899     3.42846802     0.22081336     1.57904771     2.51252819
O       1.73360801     1.87525098     4.70721500    -0.11027954    -0.38018042    -0.08770962
O       3.46936199     3.46360898     4.42920602     0.42961273     0.70207726     0.18678300
O       4.89720498     2.83000898     9.25010803     0.18396944     0.29223247    -0.31023971
O       3.63429299     0.58123099     0.27690200     0.23871442     0.68720214     0.06596090
O       1.74211998     4.66192801     9.13405998    -0.45009697    -0.19246437    -0.22097534
O       4.36708002     0.82396898     4.66790099    -1.05496053     0.51392283     0.87994753
O       0.95283301     4.73901199     4.42934101     0.55508647    -0.95376496     0.43659996
O       0.03900200     3.34644798     2.58831901     0.97288960    -0.54926831    -1.11367838
O       5.17517898     2.31788499     6.58271501    -0.94752309    -0.92915512     0.01448611
O       2.53040300     2.03732998     2.04463702     0.25575621     0.81736865    -0.42906046
O       2.50959501     3.59468201     6.99066701     0.71595865    -1.28366512     0.25114416
O       0.36820201     0.79911898     2.27369800    -1.31417410    -0.84497948    -1.01472069
O       4.95727199     4.81416500     7.06996602     1.45769776     0.21486820     0.66135277
O       2.51582898     0.68152002     6.81651398    -0.63153105     0.93780071     0.12477234
O       2.77748200     4.76293001     2.49403900     0.07123141    -0.61082363     0.00286112
