# total energy = -19517.43877830 eV

CRYSTAL
PRIMVEC
        5.93400000     0.00000000     0.00000000
        0.00000000     9.29699974     0.00000000
        0.00000000     0.00000000     4.64899994
PRIMCOORD
23 1
Ti      4.52590099     7.01342602     2.32943799     0.56114167     0.39313545    -0.81535599
Ti      4.39967200     2.28820699     2.35130598     2.00402396     0.07069071     0.28958011
Ti      1.50414601     6.93570502     2.29352702    -0.19470637     1.47018613     0.01933290
Ti      1.49724601     2.31363300     2.20448199    -2.09811480    -0.16775966     0.88056228
Ti      2.89732900     4.50242600     0.03423999     0.27306951    -0.33699359    -0.26861225
Ti      3.01010599     0.09390398     0.05306103    -1.63766245    -0.84005273    -0.13623407
Ti      5.89763902     4.71486500     0.06513902    -0.14952899    -0.57762656    -0.08105329
Ti      5.88967500     9.24639299     4.53334101     1.75874911     0.32896660    -0.59832215
O       4.46515398     5.60751198     0.95622001    -0.73490203    -0.05497432     0.02019397
O       4.45453900     1.00876302     0.85616598     0.17620985    -0.64393303    -0.01306455
O       1.48296500     5.53571300     1.07216899     1.04191423    -0.82280731    -1.40470216
O       1.42203199     0.98644598     0.87599499     0.26167618    -0.70965996    -0.31496462
O       4.34792000     8.37339801     3.69276798     0.67596384    -0.07467412     0.91366499
O       4.55218099     3.75074400     3.80999000    -1.60436974     0.29106827    -0.41369914
O       1.49399501     8.55716201     3.57105202    -0.32339270    -0.42669247     1.74650732
O       1.41539399     3.58365898     3.80682398     1.35477184     1.66634183     0.45539216
O       3.06763602     1.33911902     3.26568399    -0.58182363     1.22565999    -0.78999745
O       0.11892603     6.15457198     3.30497599    -0.96176032    -0.78885819     0.91384214
O       5.88176597     1.38541102     3.15364600    -0.09131713    -0.27504283     0.38967268
O       2.94295498     7.85898502     1.45581202     0.98491465    -0.14017325    -0.08281372
O       2.94829798     3.18338502     1.32374599     0.40295192     0.10807508     1.01586329
O       0.08597903     7.87259000     1.49755601    -1.12479146     0.66049351    -1.34566961
O       0.02282500     3.35149998     1.53995501     0.00698338    -0.35536978    -0.38012206
