# total energy = -19960.65085662 eV

CRYSTAL
PRIMVEC
        5.93400000     0.00000000     0.00000000
        0.00000000     9.29699974     0.00000000
        0.00000000     0.00000000     4.64899994
PRIMCOORD
24 1
Ti      4.49308798     6.93356000     2.30922702    -0.83506196     1.43457814     0.42365188
Ti      4.42136303     2.30099000     2.28108299    -0.27556425    -1.16072444     0.69920765
Ti      1.46827102     6.96044099     2.34934400     0.86756509     0.98893637    -0.17242827
Ti      1.45460999     2.35273301     2.33999698     0.03539973    -0.74594030     0.35615500
Ti      3.01632398     4.65992100     4.63659201     0.13061415    -0.14772176    -0.37806826
Ti      2.91539802     0.09988702     0.00992699     1.14165919    -1.15254704    -0.20845998
Ti      0.02426299     4.57970498     4.63307901     0.11148050    -0.06940644    -0.44251556
Ti      0.01741401     0.01126401     0.02030400    -1.34036877    -0.44590247    -0.81810785
O       4.55789002     5.39113500     0.87659900    -1.09236932     1.25477337     1.04628871
O       4.40245198     0.78550801     0.96212198     0.57260751     0.93009383     0.41368705
O       1.41034701     5.60426902     0.88466800     0.56781729    -1.05062050     0.14057152
O       1.48173398     0.91991501     0.91144601    -0.20657433     0.44126703     0.67706582
O       4.48902299     8.41229799     3.78139897     0.17139777    -0.34079085    -0.65746552
O       4.42616298     3.72310798     3.63079899    -0.12784532     0.92416486     1.05245087
O       1.52168400     8.47540899     3.68489202    -0.63375840    -0.63163441     0.15062119
O       1.51695803     3.80748403     3.62306602     0.04973775     0.01111128     0.44772230
O       3.03905902     6.15477799     3.31301699    -0.50805583    -0.50816407    -0.24775159
O       2.91234102     1.49901299     3.31216899    -0.35766835     0.01567422    -0.60932854
O       5.91723302     6.07368401     3.31907401     0.19166424     0.06538163    -0.89216979
O       5.90138898     1.43452899     3.28573198     0.70782573     0.22482994    -0.03937517
O       2.96313097     7.86220400     1.28301199    -0.06286761    -1.34350037     1.64032354
O       3.03205001     3.18381498     1.39061997    -1.40970553     0.68743996    -0.75525901
O       5.93274199     7.94813403     1.57303198     0.31085754    -0.58172156    -0.76131704
O       5.79659500     3.08039798     1.38311799     1.99121344     1.20042331    -1.06549897
