# total energy = -19074.38271502 eV

CRYSTAL
PRIMVEC
        7.60600008     0.00000000     0.00000000
        0.00000000     7.60600008     0.00000000
       -1.89786986    -1.89786986     4.85670466
PRIMCOORD
22 1
Ti      3.89150102     6.55122198     1.06066499    -0.66916893     1.76430039     0.22157261
Ti      3.70690002     2.90059201     1.34177300     1.10632168    -1.48679880    -1.51908287
Ti      0.00553599     7.02641002     1.12573702     0.22042924    -1.45798033     0.10259143
Ti      0.00926002     2.92072700     1.42405302    -1.40135767    -0.20092227    -1.17807194
Ti      5.47296221     3.05167021     3.81303081     0.88417648    -0.55626275    -1.99622889
Ti      5.82693220    -0.69189978     3.58194879    -0.98990388    -1.61286518    -0.40205152
Ti      1.83413221     2.69058723     3.63413281     0.21353200    -0.60352992     0.49367822
Ti      1.79828622    -1.05303775     3.65579579    -0.46997958    -0.12020632     0.79468509
O       3.57248498     4.68953101     0.81018201    -0.00385306     0.85200837     0.28139706
O       3.58139601     0.89644198     0.68110197     1.40777258    -0.70867291     1.53353916
O       0.01534201     4.64064598     0.74209600     0.13520717     0.16848471     0.67600189
O       7.13152198     1.21945600     0.59407698     0.94485865     0.19506298     0.57531540
O       5.61772124     4.82350720     3.99837583     0.21506257     2.08557424     1.34996259
O      -0.06243477    -1.14391579     3.32629881     0.48541957     0.92486343    -0.78423201
O       2.02585424     4.69171021     3.91483779     0.08793150     0.55651266     0.94663297
O       1.76118322     0.87690724     4.11523483     0.60042840     0.88012853    -0.12739435
O       3.70283822     3.05252621     3.33277282     0.05897213    -1.07514884     0.23846734
O       0.10240924     3.04739520     3.25859783    -2.38161708    -0.00161311     0.82161483
O       5.77077502     6.58728900     1.59974299    -1.04278532     0.61844336    -0.13470272
O       5.52977500     2.97136503     1.74001698     0.95512764    -0.43700491     0.29332133
O       1.89833702     6.82686802     1.82788501     0.29303645    -0.10853350    -2.28893264
O       1.87030100     2.49673299     1.66951200    -0.64961028     0.32416069     0.10191728
