# total energy = -19926.61388277 eV

CRYSTAL
PRIMVEC
        6.21866322     0.00000000     0.00000000
        0.66023728     6.58552461     0.00000000
        0.00000000     0.00000000    11.14401060
PRIMCOORD
24 1
Ti      2.64522238     3.90257583     4.13434855    -0.05427524    -1.34088145     0.70843277
Ti      4.23367831     2.68294884     7.00966243     0.05427524     1.34088145    -0.70843277
Ti      5.63217700     2.68295108     1.43761243     0.09759114     0.33749315    -0.48073528
Ti      1.24672371     3.90257391     9.70639874    -0.09759114    -0.33749315     0.48073528
Ti      2.31510388     0.60981358     1.43765713    -0.05427524    -1.34088145    -0.70843277
Ti      4.56379683     5.97571135     9.70635404     0.05427524     1.34088145     0.70843277
Ti      0.91660511     0.60981115     7.00961779    -0.09759114    -0.33749315    -0.48073528
Ti      5.96229553     5.97571371     4.13439325     0.09759114     0.33749315     0.48073528
O       2.20072702     2.31887518     5.68670345     1.59407658     1.63639978    -0.27562905
O       4.67817368     4.26664955     5.45730753    -1.59407658    -1.63639978     0.27562905
O       1.37360527     2.31890182     0.11473384    -1.15456099     0.86006672     0.36701920
O       5.50529550     4.26662297    11.02927688     1.15456099    -0.86006672    -0.36701920
O       4.34805516     0.97388704     0.11469771    -1.59407658    -1.63639978    -0.27562905
O       2.53084554     5.61163769    11.02931301     1.59407658     1.63639978     0.27562905
O       5.17517698     0.97386047     5.68673965     1.15456099    -0.86006672     0.36701920
O       1.70372366     5.61166426     5.45727139    -1.15456099     0.86006672    -0.36701920
O       0.62753213     4.00568953     3.01027535     0.45521784     0.43129654     0.84701297
O       6.25136850     2.57983520     8.13373562    -0.45521784    -0.43129654    -0.84701297
O       3.59391988     2.57977387     2.56176557     0.56356417     0.90489341     0.14452151
O       3.28498082     4.00575080     8.58224528    -0.56356417    -0.90489341    -0.14452151
O       0.29741361     0.71292703     2.56172994     0.45521784     0.43129654    -0.84701297
O       6.58148702     5.87259764     8.58228084    -0.45521784    -0.43129654     0.84701297
O       2.95486230     0.71298836     8.13377118    -0.56356417    -0.90489341     0.14452151
O       3.92403840     5.87253637     3.01023979     0.56356417     0.90489341    -0.14452151
