# total energy = -19517.84289148 eV

CRYSTAL
PRIMVEC
        5.93400000     0.00000000     0.00000000
        0.00000000     9.29699974     0.00000000
        0.00000000     0.00000000     4.64899994
PRIMCOORD
23 1
Ti      4.47212700     7.14888302     2.17842001     0.29385149     0.17730025     0.66126381
Ti      4.44304998     2.29253603     2.33587998     0.48987915    -0.89245338     0.38236046
Ti      1.38348000     7.01529201     2.18071098    -0.40054845     0.59351033     0.62993079
Ti      1.42424898     2.33300300     2.41593000     0.11755268    -1.10369683    -0.39452307
Ti      2.95258400     4.42794800     0.23215101     1.00833227     0.00412662     0.04524783
Ti      2.99549598     0.01325298     4.61575698    -0.22650142     0.09378925    -0.74827409
Ti      5.91666299     4.61581101     4.62360198    -0.36431337     0.17917202     0.21791830
Ti      0.04523000     0.10719401     0.03467302     0.41194796     0.00550962    -0.82742656
O       4.47293198     5.50688602     0.97953900    -0.39261300     0.33057791    -0.44237029
O       4.41584201     0.84843200     0.95689900     0.26588302     0.15380139     0.22528091
O       1.59715701     5.43821998     0.95914800    -0.72805235     1.16063908     0.19001668
O       1.63915902     0.96702898     0.98183298    -0.99274392    -0.95160420    -0.65289204
O       4.52085697     8.57266002     3.53713599    -0.55879785    -1.21312328     0.75380068
O       4.46639400     3.74683200     3.85638799     0.06087603    -0.03035805    -1.35578177
O       1.38257701     8.37172401     3.67230099     0.75247167     0.26927842     0.25795091
O       1.52916800     3.64386798     3.79679898    -0.12249511     1.20170295    -0.01600744
O       3.03160000     1.48705300     3.34063999    -0.41940802    -0.33552986    -0.13955130
O       0.00457400     6.14697199     3.03895303    -0.31281955    -1.57358334     1.79167596
O       5.88806001     1.43738898     3.24100301     0.67774639    -0.03569927     0.61025773
O       2.92681100     7.83098101     1.33604301     0.31642553    -0.49386539     0.08650428
O       3.00511600     3.11704599     1.47208898    -0.56763577     0.93112433    -0.29125930
O       5.89907600     7.90477901     1.34739302     0.67813771     0.54480951    -1.08142696
O       0.02129801     3.10315800     1.35646402     0.01282441     0.98457141     0.09730421
