# total energy = -4986.92644792 eV

CRYSTAL
PRIMVEC
        4.24051026     0.00000000     0.00000000
       -0.00000944     4.24051026     0.00000000
       -2.12028838    -2.12029310     5.41183419
PRIMCOORD
6 1
Ti     -0.00018674     3.18054330     1.35295840    -0.00199106     0.00199106     0.00000000
Ti      2.12039905    -1.06032627     4.05887544     0.00199106    -0.00199106     0.00000000
O       0.00004236     1.06012036     0.88154351    -0.00017843    -0.00201395    -1.09194509
O       2.12016984     1.06009656     4.53029039     0.00017843     0.00201395     1.09194509
O      -0.00002395    -1.06010195     3.58746054    -0.00201395    -0.00017843    -1.09194509
O       2.12023609     3.18031881     1.82437335     0.00201395     0.00017843     1.09194509
