# total energy = -19935.77724367 eV

CRYSTAL
PRIMVEC
        6.02975167     0.00000000     0.00000000
        0.00003305     6.41747920     0.00000000
        0.00000000     0.00000000    10.79192962
PRIMCOORD
24 1
Ti      2.18551455     3.80299224     4.00372900     0.04634492    -0.80608819     0.61740797
Ti      3.84427017     2.61448702     6.78820093    -0.04634492     0.80608819    -0.61740797
Ti      5.20028482     2.61448923     1.39219285     0.04634004     0.80617072    -0.61745220
Ti      0.82949989     3.80299028     9.39973721    -0.04634004    -0.80617072     0.61745220
Ti      2.18549815     0.59425276     1.39223612     0.04634492    -0.80608819    -0.61740797
Ti      3.84428657     5.82322668     9.39969393    -0.04634492     0.80608819     0.61740797
Ti      0.82948349     0.59425037     6.78815766    -0.04634004    -0.80617072    -0.61745220
Ti      5.20030123     5.82322908     4.00377227     0.04634004     0.80617072     0.61745220
O       1.90846611     2.25970358     5.50703919     1.32881294     1.21739749     0.03369843
O       4.12131861     4.15777574     5.28489074    -1.32881294    -1.21739749    -0.03369843
O       1.10646825     2.25972943     0.11110897    -1.32841725     1.21778264     0.03280677
O       4.92331653     4.15774989    10.68082065     1.32841725    -1.21778264    -0.03280677
O       4.12130221     0.94903608     0.11107395    -1.32881294    -1.21739749     0.03369843
O       1.90848251     5.46844318    10.68085567     1.32881294     1.21739749    -0.03369843
O       4.92330012     0.94901023     5.50707421     1.32841725    -1.21778264     0.03280677
O       1.10648453     5.46846909     5.28485572    -1.32841725     1.21778264    -0.03280677
O       0.21909490     3.90347465     2.91516949     0.46787179    -0.27287591     0.31598021
O       5.81068981     2.51400461     7.87676044    -0.46787179     0.27287591    -0.31598021
O       3.23397557     2.51394480     2.48082978     0.46786999     0.27303994    -0.31636613
O       2.79580915     3.90353446     8.31109997    -0.46786999    -0.27303994     0.31636613
O       0.21907850     0.69473499     2.48079532     0.46787179    -0.27287591    -0.31598021
O       5.81070621     5.72274427     8.31113443    -0.46787179     0.27287591     0.31598021
O       2.79579275     0.69479480     7.87679484    -0.46786999    -0.27303994    -0.31636613
O       3.23399197     5.72268446     2.91513503     0.46786999     0.27303994     0.31636613
