# total energy = -19075.81803902 eV

CRYSTAL
PRIMVEC
        7.60600008     0.00000000     0.00000000
        0.00000000     7.60600008     0.00000000
       -1.89786986    -1.89786986     4.85670466
PRIMCOORD
22 1
Ti      3.80932800     6.56688800     1.28736998     0.76874882     0.62162561    -0.80062537
Ti      3.75442998     2.84268600     1.15346501    -0.51988162    -0.68908701     0.93237723
Ti     -0.01082300     6.68206999     1.04676499    -0.31754267    -1.01357758     1.13302233
Ti     -0.10692598     2.83772502     1.06558899     0.15932309     1.40689557     0.94767555
Ti      5.65366423     2.96819520     3.56890182    -0.69478509    -0.57532774    -0.27054494
Ti     -1.36392478    -0.84880777     3.81057183    -0.78353884    -0.12848836    -2.22574981
Ti      1.82291820     2.79792120     3.66273680     0.49935573    -0.62568796    -1.08861397
Ti      1.78184124    -1.07237076     3.74342881    -0.51721950     0.41581773     0.72141351
O       3.70977399     4.70002501     0.80194600    -0.36224029     0.46205338     0.21387267
O       3.90357902     0.91385403     0.80045102    -0.08728333    -1.00542589     1.09436090
O       0.02692798     4.77029901     0.65921198     0.01626815     0.84276139     0.55359934
O      -0.22803602     1.02735598     0.64938198    -0.04759988    -1.08772925     2.09245555
O       5.43912524     4.86560823     4.03999281     1.01595791     0.19552321    -0.47008345
O       5.54476923     0.94579522     3.93768782     0.79746599     0.06487924     0.10884306
O       2.09072724     4.60508220     4.21569781    -0.72445872     1.91461870    -0.70760848
O       2.09848223     0.87847223     4.07128582    -0.71051511    -0.07079021    -0.58365426
O       3.69549424     2.94230124     3.17990484     0.14500822    -0.56182764    -0.33660124
O      -0.09246780     2.81833321     3.18872580     0.77415765     0.25162239     0.02660604
O       5.75410699     6.58246698     1.99172702     0.13585020     0.12011453    -0.73456727
O       5.62401802     3.09716998     1.60785798     0.49980361    -0.58681106    -0.14445646
O       1.96421298     6.64706598     1.87973602    -0.19204451    -0.01218266    -0.98662984
O       1.78705300     2.74347400     1.47962399     0.14517045     0.06102387     0.52490839
