# total energy = -19961.67592719 eV

CRYSTAL
PRIMVEC
        7.60600008     0.00000000     0.00000000
        0.00000000     7.60600008     0.00000000
       -1.89786986    -1.89786986     4.85670466
PRIMCOORD
24 1
Ti      3.79256498     6.75123298     1.15157003     1.36250906    -0.34982031    -0.29055611
Ti      3.81096300     2.84507899     1.19173199    -0.09636215     0.43577798    -0.12330398
Ti     -0.02714002     6.64858302     1.21550702    -1.00279977    -0.73198486     0.45371683
Ti     -0.04437299     2.78317398     1.28046601    -0.00799613     0.63691494    -0.40121874
Ti      5.64855523     2.82577921     3.68067580    -0.20494631    -0.18800556     0.36800702
Ti      5.66925522    -0.95182376     3.66092383     0.42143919     0.09344935    -0.49383454
Ti      1.92199622     2.82615424     3.62183383     0.54263409     0.20274519     0.43033881
Ti      1.94183724    -0.93405775     3.49255281    -0.49130971     0.00747034     1.37317734
O       3.94420401     4.75785700     0.86341999    -0.56169935     0.87059796    -1.04608431
O       3.89720000     1.01287801     0.77007397    -0.56213849    -0.90163248    -0.45578117
O      -0.17243098     4.72619098     0.83482400     0.45958897    -0.19251014     0.21690837
O      -0.07832898     0.87646501     0.79739301     0.27341301     1.27285055     0.41391434
O       5.55413922     4.71133523     4.12135784     0.45810750     0.15742691    -0.65607018
O       5.78635421     0.92118123     4.16736181     0.05608709    -0.23581473    -0.16906861
O       2.13915024     4.85704524     3.97192279    -0.87489737    -1.42907160     0.80824509
O       1.89294820     0.98694124     4.01353882    -0.21750281    -0.25993631     0.26109614
O       3.84843822     2.60483622     3.27737479    -0.77443944     0.62258566    -0.28783408
O       3.79555420    -0.94031776     3.18009682     0.35085312     0.48513521    -0.16569223
O       0.03948922     2.86374921     3.22309083    -0.38121966     0.14032006     0.24332852
O       0.00450425    -0.99958376     3.21506380    -0.06783524    -0.24351210     0.13859331
O       5.68012002     6.85916498     1.73428102     0.11289230    -0.57723010    -0.52609470
O       5.62264200     2.82143202     1.70000102     1.95723527    -0.04500178    -0.09077514
O       1.90302199     6.68205200     1.56915099     0.08173951     0.07553133    -0.42864265
O       1.95345099     2.82848600     1.62332101    -0.83335321     0.15371397     0.42763092
