# total energy = -4986.49800938 eV

CRYSTAL
PRIMVEC
        3.88099146     0.00000000     0.00000000
        1.82634220     3.42440782     0.00000000
       -2.85370329    -1.71222579     5.12546815
PRIMCOORD
6 1
Ti      1.36966508     2.56843774     1.28136670     0.00048954    -0.00048954     0.00000000
Ti      1.48396515    -0.85625584     3.84410082    -0.00048954     0.00048954     0.00000000
O       0.45662577     0.85609759     0.83489677    -0.00013087    -0.00020080    -2.71166201
O       2.39700429     0.85608430     4.29057080     0.00013087     0.00020080     2.71166201
O      -0.45658888    -0.85607542     3.39763084    -0.00020080    -0.00013087    -2.71166201
O       3.31021886     2.56825722     1.72783667     0.00020080     0.00013087     2.71166201
