# total energy = -19072.58204592 eV

CRYSTAL
PRIMVEC
        5.93400000     0.00000000     0.00000000
        0.00000000     9.29699974     0.00000000
        0.00000000     0.00000000     4.64899994
PRIMCOORD
22 1
Ti      4.38528901     7.06499498     2.21221697     1.11543238    -2.12520113     0.25679905
Ti      4.37003400     2.27376500     2.32348602     0.64686460    -0.44033860    -0.90769026
Ti      1.52673902     7.14616998     2.62849198    -0.16558708    -3.38870880    -0.93754386
Ti      1.54597303     2.57625197     2.04330502    -0.07678860     0.23569569    -0.18222983
Ti      3.03836299     4.60535499     4.63142697    -0.07751596     1.91566746     0.57667706
Ti      2.92482002     9.28830198     0.00359798     1.18895876     1.61680643     1.17902299
Ti      5.84691500     4.45302201     4.31588599     2.05890675     1.81450428     1.29440874
Ti      5.87865198     9.08995301     0.27232398     0.18008965     1.46359253     0.66993434
O       4.61614402     5.76354799     0.68818200    -0.29472412    -0.64905801     1.59282548
O       4.51097602     0.57826199     1.23870700    -0.19605852     2.02453726    -0.85757687
O       1.35786401     0.95972602     1.06081602     0.28182772    -0.32425788    -1.83711097
O       4.48765798     8.44169601     3.87620298    -0.77248000    -0.36811166    -1.18940485
O       4.34512203     3.73554698     3.73682002    -0.09543501    -2.15445386    -2.15700723
O       1.50518902     8.32461998     3.86709701    -0.20615627     2.13795329     2.31506637
O       1.73746402     3.57168000     3.71896802    -2.32159209     1.27928216    -0.32188012
O       3.06190900     6.06088898     3.35894598    -0.76702026     0.75135556    -1.42018432
O       2.92993399     1.48056502     2.93143601    -1.31037555    -2.23801783     3.64054767
O       5.90384399     6.10752299     3.19252598     0.94641005    -1.33148406     0.01255110
O       2.91459902     7.99396702     1.56696200    -0.78203268    -0.26904059    -1.07429549
O       3.12679200     3.04815902     1.15913800     0.05791181     1.19168953     0.32461192
O       0.15771001     8.06324299     1.70900899    -0.50997979    -1.50392082    -0.28692442
O       5.77944998     3.23751800     1.42005302     1.09934421     0.36150932    -0.69059677
