# total energy = -19517.74669593 eV

CRYSTAL
PRIMVEC
        7.60600008     0.00000000     0.00000000
        0.00000000     7.60600008     0.00000000
       -1.89786986    -1.89786986     4.85670466
PRIMCOORD
23 1
Ti      3.70473400     6.65107698     1.17213798     0.86104811    -1.15295868     0.09024524
Ti      3.70650102     2.68445602     1.16159598     2.50593614     1.34940234    -0.52020892
Ti     -0.03846198     6.70842498     1.19045402    -0.53590294    -0.45261768    -0.68647991
Ti      0.06212700     2.83260999     1.22476201    -1.74702642     1.05954635    -0.10907369
Ti      5.72235524     2.91102321     3.68569282    -1.10295610     0.20386207    -0.28441837
Ti      5.69070521    -0.82782780     3.57724181    -0.37841613    -0.22382361     0.18328578
Ti      1.96966223     2.81458722     3.63630180     1.48293881    -0.35490724     3.36380482
Ti      1.89558821    -1.06507579     3.53385282     0.64791309     0.92422914     0.43177503
O       3.82599602     4.70928202     0.98224601    -1.12585075    -0.55586011    -0.82236251
O       3.99341701     0.86941600     0.69272498    -0.53993058     1.04728938     0.06406626
O       0.16691901     4.71015601     0.98989801     0.27628648     1.20414987    -0.50843250
O      -0.12910602     1.06729802     0.71524301     0.36796125    -1.36069823    -0.46409818
O       5.72114121     4.75998122     4.10180881     0.53805599     0.84056387    -0.23302045
O       5.65240621     1.07563224     4.06471984     1.10131702    -1.92914081    -0.40359881
O       1.74833623     4.69135423     3.99916584    -0.10299997    -0.45239194    -0.18148524
O       1.90255023     0.83972323     4.06790781    -0.82269161     1.22596646     0.96539020
O       3.84120024     2.83523323     3.68935679    -1.03505915     0.14686995    -1.60943019
O       3.82629823    -0.86603275     3.19149482    -0.11784527    -0.47471298    -0.50409504
O       0.09327220    -0.97046779     3.15830880    -2.19581290     0.30864202     0.13218175
O       5.64429901     6.70888002     1.41964498     1.40930444    -0.17755377     1.59480369
O       5.74220997     2.82286598     1.78014698     0.10239834     0.15296167     0.36416527
O       1.87505100    -0.54831801     1.50478399     0.39754360    -1.13233122     0.78397335
O       1.91121201     2.66386198     1.82920499     0.01378832    -0.19648686    -1.64698759
