# total energy = -4989.62632277 eV

CRYSTAL
PRIMVEC
        3.06439950     0.00000000     0.00000000
        0.71619011     4.74774030     0.00000000
       -0.00000450    -0.00006233     4.81509195
PRIMCOORD
6 1
Ti      1.89029227     2.37383890     2.40754592     0.00000000     0.00000000     0.00000000
Ti      0.00000000     0.00000000     0.00000000     0.00000000     0.00000000     0.00000000
O       1.67177364     0.92525245     0.93839047    -0.23571548    -0.08541439    -0.14987814
O       2.10881091     3.82242535     3.87670132     0.23571548     0.08541439     0.14987814
O       0.21851668     1.44856119     3.34593741     0.23586306     0.08520022    -0.14971051
O       0.49766849     3.29911671     1.46915437    -0.23586306    -0.08520022     0.14971051
