# total energy = -19075.11880846 eV

CRYSTAL
PRIMVEC
        7.60600008     0.00000000     0.00000000
        0.00000000     7.60600008     0.00000000
       -1.89786986    -1.89786986     4.85670466
PRIMCOORD
22 1
Ti      3.77784698     6.55421199     1.33202000     1.21478910     0.76829193    -1.09866596
Ti      3.75692400     2.84268902     1.17357501    -0.56158622    -1.35521792     0.79200445
Ti     -0.03205301     6.66891100     1.05891802    -0.13712984    -0.85735215     1.83414854
Ti     -0.12326200     2.84747997     1.07302001     0.26870429     1.00095166     0.16811653
Ti      5.65333423     3.02886024     3.55949781    -0.58723375    -1.48547289    -0.52026472
Ti     -1.35470577    -0.81831880     3.81663382    -1.23315604     0.46672430    -2.31855150
Ti      1.80143424     2.78798421     3.66871481     0.57454664    -1.22832596    -1.09890738
Ti      1.86610124    -1.11099880     3.74547683    -0.78767729     0.61971040     0.73474391
O       3.71555398     4.61814002     0.74928101    -0.63570498     1.66460428     0.78244200
O       3.87464001     0.90666499     0.77446001    -0.00622233    -1.50876657     1.72084615
O       0.00112498     4.78472798     0.63981303     0.25325273     0.69426522     0.83308453
O       7.33844500     0.95606200     0.62574998     0.10585159     0.61497442     1.89073314
O       5.57039025     4.85121323     4.06638780     0.73106543     0.69304137    -1.58774164
O       5.47728125     1.03169624     3.92161380     1.25192947    -1.32403326     0.38674445
O       2.04204421     4.54511822     4.26105381    -0.48243169     2.38727017    -1.03713892
O       2.10888421     0.84600223     4.10048883    -0.58101605    -0.02047602    -1.20694672
O       3.69203422     2.93805422     3.17251980     0.19118936    -0.20188489    -0.54765623
O      -0.07183475     2.83075120     3.14453982     0.58110218     0.11896962     0.26197674
O       5.76761498     6.65785400     1.93523698     0.14162181    -0.36430643     0.18894299
O       5.66840800     3.19889299     1.57898601    -0.29315163    -0.95778539     0.33526349
O       1.96415598     6.60955599     1.87370001    -0.47512179     0.06405083    -1.09419429
O       1.75972899     2.68324802     1.39303397     0.46637900     0.21076652     0.58102016
