# total energy = -19517.44770051 eV

CRYSTAL
PRIMVEC
        7.60600008     0.00000000     0.00000000
        0.00000000     7.60600008     0.00000000
       -1.89786986    -1.89786986     4.85670466
PRIMCOORD
23 1
Ti      3.67782898     6.69860398     1.29367899     1.33460461    -2.13129079    -0.28145311
Ti      3.83156402     2.78399400     1.15269902    -0.24151255     2.56797225    -0.10161569
Ti      0.00609998     6.61012401     1.24716198    -1.35099900    -1.48910997    -0.68914332
Ti      0.06617801     2.77519600     1.09100701    -1.19466610     1.90034907    -0.36399018
Ti      5.52536324     2.90727822     3.54518282     0.73682162    -0.33695245     3.37053366
Ti      5.81259224    -0.99746075     3.70741883    -1.10793941     0.44867541    -1.95362621
Ti      2.08949421     2.96709922     3.60049783    -1.58232612     0.96008036     3.31334922
Ti      1.88679720    -0.85762878     3.68766380     0.88316321    -0.86231927    -0.74527618
O       3.89681798     4.80268900     0.93110499    -0.25435213    -1.21249645    -0.81026881
O       3.43411302     0.96445501     0.71524100     0.22305871     0.40803011     1.00061639
O       7.29764501     4.68493198     0.62465898     0.95776919     0.81241336     1.43606835
O       0.21563698     0.92916598     0.85012098    -0.27129905    -1.22635676    -0.37026008
O       5.50287522     4.75220724     3.94562183     1.15166412     0.44941820     0.66207139
O       5.94225120     0.99818123     4.07627982    -0.11636123    -1.01559410    -0.75941674
O       2.14425024     4.82984622     4.10752779    -1.02042006    -0.61707064     0.34696870
O       1.77811224     1.11357722     3.95217881    -0.12485230    -1.10934761     1.00959545
O       3.77212123     2.76680225     3.17556982     0.93286805    -0.54386514    -0.74297941
O       3.75216124    -0.87918376     3.25089079     0.82585150     1.16030252     0.13142610
O       0.01476225    -0.90923076     3.17082580     0.00379084    -0.31369399     0.54954111
O       5.73343500     6.53616598     1.64970500    -0.01101307     1.24870865     0.63096463
O       5.72721600     2.67638602     1.77115102     1.37829615    -0.57569515    -3.26784171
O       1.89507898     6.21017401     1.71245801    -0.81426584     1.24852507    -0.64490902
O       1.76808502     2.96635800     1.82466999    -0.33788113     0.22931729    -1.72035430
