# total energy = -4984.16657370 eV

CRYSTAL
PRIMVEC
        3.34864199     0.00000000     0.00000000
        2.46909206     4.62954684     0.00000000
       -0.00001588    -0.00007153     5.42950692
PRIMCOORD
6 1
Ti      2.90885882     2.31473754     2.71475357     0.00000000     0.00000000     0.00000000
Ti      0.00000000     0.00000000     0.00000000     0.00000000     0.00000000     0.00000000
O       2.15550744     0.90221651     1.05813099     0.25215589     0.43882988    -0.27622940
O       3.66221022     3.72725869     4.37137622    -0.25215589    -0.43882988     0.27622940
O       0.75334464     1.41249228     3.77288562    -0.25253436    -0.43899443    -0.27609184
O       1.71573117     3.21698300     1.65662153     0.25253436     0.43899443     0.27609184
