# total energy = -19961.85060204 eV

CRYSTAL
PRIMVEC
        7.60600008     0.00000000     0.00000000
        0.00000000     7.60600008     0.00000000
       -1.89786986    -1.89786986     4.85670466
PRIMCOORD
24 1
Ti      3.81687301     6.51305300     1.23598200     0.16127482     1.89080205    -0.12536112
Ti      3.78758299     2.81337799     1.24296201    -0.05867517    -1.43247703    -1.07016424
Ti      0.01680598     6.71502699     1.17206802    -0.12049377    -0.15178745     1.17688537
Ti     -0.00406101     2.90967000     1.18159702     0.16221070    -0.02180631     0.31973505
Ti      5.68314220     2.91960122     3.58975881     0.04538179    -0.73024859     0.28224964
Ti      5.70464024    -0.90522277     3.64985482     0.25852735     0.61294711    -0.29085898
Ti      1.87081324     2.82275824     3.61195081    -0.00838360    -0.38704399     0.24684811
Ti      1.91266921    -0.99875877     3.60444279    -0.32776795     0.26933704     1.48457480
O       3.80948998     4.69739601     0.87628202     0.08373932    -0.36626844    -0.65219064
O       3.81604601     0.84347298     0.84925699     0.05517487     1.01218970    -0.42652149
O       0.03435900     4.77509600     0.72798300    -0.06731536     0.69408935     0.35811392
O      -0.01847702     1.04649902     0.76564598     0.21303603    -1.71619888     0.50859499
O       5.64696924     4.80357124     4.10660983     0.18659300    -0.27429464    -0.63338944
O       5.70490721     0.99542321     4.13893383    -0.06942135     0.42501045    -1.71078517
O       1.89275822     4.71331424     4.10731781    -0.10604005    -0.38969994    -0.28012591
O       1.85182023     0.90809822     4.04503979     0.16491833     0.58024626     0.59600764
O       3.71785320     2.93219220     3.27567883     1.83774475    -0.26328595    -0.40053251
O       3.78753521    -0.87497580     3.22890681     0.65257194    -0.34796912     0.13728976
O       0.01967523     2.87234522     3.15278080    -0.93071141     0.31625043     0.60535515
O       0.02466522    -0.89877179     3.25344883    -0.52375371    -0.16559350    -0.36238324
O       5.73496802     6.59662099     1.70917600     0.28509559    -0.01981190    -0.61089382
O       5.69616002     2.74986799     1.59490800    -0.08961095     0.56066165     0.83489278
O       1.92392899     6.60413102     1.65429799    -0.86384522    -0.11793937    -0.42609032
O       1.94398502     2.81923900     1.59588799    -0.94025020     0.02289131     0.43874940
