# total energy = -19960.95998583 eV

CRYSTAL
PRIMVEC
        5.93400000     0.00000000     0.00000000
        0.00000000     9.29699974     0.00000000
        0.00000000     0.00000000     4.64899994
PRIMCOORD
24 1
Ti      4.44627098     7.02549698     2.42454898    -0.86796515    -0.32536731    -0.81654153
Ti      4.46319999     2.33175700     2.33953702     0.08804026    -0.75348983     0.78424615
Ti      1.46673402     6.98412098     2.31159599     0.71135098     0.70876779     0.00440379
Ti      1.48062699     2.38541600     2.26027299     0.26144504    -1.14854589     0.64119943
Ti      2.93939902     4.62346899     0.03408399     1.34245702    -0.03917694    -0.28413194
Ti      2.95999200     9.23951300     4.62100298    -0.65315172     0.78114771     0.10451590
Ti      0.04082698     4.72315202     0.00427702    -1.22397309    -0.47214033    -0.07581106
Ti      5.92846502     9.27108900     0.00864998     0.58367380     0.69066156     0.23935334
O       4.35093700     5.53065999     0.88661399     0.80578223     0.29780559     0.35482497
O       4.43897002     0.85281200     0.81879199     0.41257196     0.54751045     0.05310127
O       1.49818398     5.49355398     0.96664099    -0.35270046     0.09384401    -0.19938655
O       1.47830703     0.87465803     0.85177000     0.09001615    -0.12180246    -0.68771841
O       4.47375401     8.36108098     3.72777300    -0.00125290    -0.07605326     0.02548401
O       4.44648699     3.74020401     3.78243299     0.06466121    -0.36221303    -0.59923541
O       1.52743801     8.26922502     3.73588603    -0.47556530     1.02727334     0.58404507
O       1.41755197     3.71717400     3.74543900     0.24615982     0.40693405     0.13293174
O       2.87789602     6.15275500     3.21809101     1.17109833    -1.32966012     0.61881025
O       2.91192101     1.32501602     3.13197699     0.91283581     0.28218845     0.36065597
O       0.04253998     6.15029300     3.31665900    -0.57233986    -0.72581446    -0.20372426
O       0.05346299     1.37959599     3.04426200    -0.57275869    -0.69082637     1.42410166
O       3.01457600     7.94482598     1.49712801    -0.14641667    -0.24915824    -0.67546068
O       3.03975801     3.22503498     1.46989702    -0.44341879     0.57216143    -0.97515011
O       5.92928900     7.90136100     1.40073700    -0.29242864    -0.40645274     0.01590691
O       0.05521203     3.16363401     1.40100899    -1.08812109     1.29240611    -0.82642048
