# total energy = -19516.18201698 eV

CRYSTAL
PRIMVEC
        5.17600016     0.00000000     0.00000000
        0.00000000     5.50899976     0.00000000
        0.00000000     0.00000000     9.26300011
PRIMCOORD
23 1
Ti      1.94453197     3.14182799     3.38270699     1.29199910     0.35141234     2.52955841
Ti      3.17258600     2.21180199     6.01280201     2.53131602     2.26387106    -3.62958628
Ti      4.34758000     2.15151902     1.40126400     1.16944305     1.21671897    -1.47880216
Ti      0.75933803     3.38485402     7.86985601    -1.96130738     1.03741840     0.80682070
Ti      2.05102202     0.16769997     1.39205701    -0.19168764     0.33517633    -1.35854776
Ti      3.37567301     5.02694500     7.99624502     0.66908742    -1.41072189     1.57273256
Ti      0.79007100     0.54310498     5.91230601    -1.88120463    -0.49710653    -2.80951617
Ti      4.60362601     4.96052601     3.39740701     0.90741103     0.52995701     3.52892550
O       1.53843802     2.07102100     4.78936199     0.57755200    -0.97961021     0.30193401
O       3.57332198     3.39510699     4.51498798     0.05460511     0.25060346    -0.31301161
O       4.31292000     3.61086197     8.93759499    -0.27925893    -0.82701158     1.82852554
O       3.41530002     0.90999601     0.15798502     0.13979813    -0.54367231    -0.74660930
O       1.65249000     4.66576603     8.99121398     0.56594038     0.83016684     1.85224346
O       4.29659600     0.61769299     4.82065197    -1.06965722     0.91786591    -0.22455638
O       1.08023900     4.89722900     4.42509399     1.32788529    -1.17286056    -0.61767562
O       0.28851701     3.32505101     2.56307599    -0.01935399     0.21985177    -1.39717551
O       0.00502898     2.20669803     6.73638999    -1.83827645    -2.22942906    -0.23220927
O       2.83192899     1.75207100     2.28613801    -1.68361451     0.48701726     1.10104577
O       2.30729801     3.61737900     6.88190600     1.75870181    -0.08933558     0.03753272
O       0.23812399     0.77112100     2.20405299     0.88051446    -0.68266902    -1.44940209
O       4.97664401     4.72293299     6.86054597    -0.11848162     1.16398460     0.84928737
O       2.44450901     0.76951299     6.84812502    -0.52456540    -0.64486582     0.82056222
O       3.19745997     4.50179098     2.25556098    -2.30684552    -0.52676113    -0.97207662
