# total energy = -19066.36927915 eV

CRYSTAL
PRIMVEC
        7.60600008     0.00000000     0.00000000
        0.00000000     7.60600008     0.00000000
       -1.89786986    -1.89786986     4.85670466
PRIMCOORD
22 1
Ti      3.85441898     6.69930598     1.41712302    -0.70113726    -0.42725863    -3.18143358
Ti      3.43892599     2.83351001     1.35601300     4.36387279     0.00562506     0.28728232
Ti     -0.11367997     6.57487498     0.97068502     1.39687341    -0.62775281     0.45555723
Ti      0.36530000     2.34720300     0.98401600    -1.60686525     3.70717012     1.13187254
Ti      5.87277621     2.68750022     3.52647281    -2.54761811     3.22387634    -1.05580411
Ti      6.33347824     0.30436921     3.22523183     1.53059216    -1.50679762    -0.95940776
Ti      1.66074522     2.68303121     3.86040281     2.58358503     1.98912056     0.67780089
Ti      1.56332824    -0.80906180     4.03651480     0.24874764    -1.91139197    -1.45727739
O       4.08264402     4.73946602     0.79870701    -2.23055932     0.86241620     2.09319088
O       4.37441098     0.88517902     0.74592698    -0.27818575    -1.41209846     3.06835514
O       0.44139997     4.33433602     0.68830201     1.02016398     0.39017173     0.48778704
O       6.93556802     0.93431302     1.09110200     0.61451188    -3.05796093     0.74290434
O       5.59750122     4.48520625     4.12971080    -0.26993636     1.42024037     0.05795989
O       4.86471720     1.11400024     4.00966080     1.69816002    -1.95122017    -0.45363815
O       1.61969223     4.76873720     4.31388379    -0.50072021     0.37506778     0.77653155
O       2.25348322     0.89367322     4.33678484    -1.60637520     0.83006091    -1.73392228
O       3.34032222     3.10592422     3.21043482    -0.92784283    -0.33322512    -1.42788452
O       0.06838224     2.85092222     2.87075880     1.05726938    -1.25607949     0.92393423
O       5.83731498     6.59332099     2.09438201    -1.06971172    -1.47392374    -0.83358795
O       5.47561402     2.97735298     1.71393600    -0.99049112    -0.83196301     1.77101508
O       1.96174098    -0.77769698     2.07502798     0.58398259    -0.60124884    -0.03061517
O       1.98485602     1.39172902     0.31202698    -2.36831573     2.58717172    -1.34062048
