# total energy = -19517.59134974 eV

CRYSTAL
PRIMVEC
        5.93400000     0.00000000     0.00000000
        0.00000000     9.29699974     0.00000000
        0.00000000     0.00000000     4.64899994
PRIMCOORD
23 1
Ti      4.41667600     7.05386099     2.22379500     0.37982124    -0.47328576    -0.03785179
Ti      4.55969800     2.39021701     2.34425998    -0.97142098    -1.53063227     0.37544985
Ti      1.40037599     6.97792802     2.21794299    -0.69472210    -0.16402230     0.33086973
Ti      1.49479301     2.35755302     2.31515698     0.30926012    -1.41682903     0.71471089
Ti      2.99325598     4.47002299     0.17251300    -0.83187302     1.11093218     0.10085002
Ti      3.01041598     0.09779899     4.60988099    -0.93325911     0.33439240    -0.32959832
Ti      5.91961300     4.54563798     4.64341998     0.42760624     1.72771769    -0.84471157
Ti      5.91793598     9.29491701     4.55899600     0.73563454     0.10664503     0.08021099
O       4.41784500     5.49138297     0.92690100    -0.06424058     0.52698661     0.29018407
O       4.49266601     0.93839002     0.92699900    -0.18564092    -0.04754871    -0.16795403
O       1.48042802     5.51388899     1.00835000     0.24794391     0.29042446    -0.16794581
O       1.50931898     1.06610102     0.92979401    -0.10915751    -1.07251243    -0.74233227
O       4.43922202     8.38038802     3.57057698     0.07181737     0.54393122     1.34559711
O       4.34116098     3.58657702     3.85885602     1.02216789     0.26842327    -0.24112894
O       1.43460101     8.50853898     3.67040002     0.33850308    -0.99982320     0.04570086
O       1.59025299     3.71974898     3.77054698    -0.78180308     0.29453283     0.42525188
O       3.02504799     1.34022600     3.19074699    -0.11496641     0.50976741     0.12582444
O       5.88068502     6.01742802     3.42683699     0.20921897     0.34743099    -1.20298876
O       0.05116599     1.40887802     3.28825600    -0.66655668     0.86929416    -0.61018420
O       2.90041500     7.89481799     1.37199801     0.18090211    -0.90024280     0.63390932
O       2.89104603     3.37029202     1.55201099     1.33970028    -1.16687118     0.60852069
O       5.88315300     7.67154498     1.32479302     0.34875228     1.39154274    -0.52098540
O       0.02714902     3.40327002     1.59457700    -0.25768711    -0.55025356    -0.21139875
