# total energy = -19074.52450422 eV

CRYSTAL
PRIMVEC
        7.60600008     0.00000000     0.00000000
        0.00000000     7.60600008     0.00000000
       -1.89786986    -1.89786986     4.85670466
PRIMCOORD
22 1
Ti      3.84598199     6.61340401     1.24614998     1.66918033    -1.10084728    -1.81559186
Ti      3.85008798     2.76152598     1.19092002     0.07918461     1.41923944     0.57792636
Ti      0.37334699     6.75718401     0.99452001    -1.66730805     0.96094451    -0.54849184
Ti     -0.06465900     2.89122198     1.20514398     0.42357680    -0.93588395    -0.19795419
Ti      5.67890021     2.82585023     3.71838079    -0.42942812     0.68146703    -1.49456097
Ti      6.13228621    -0.76180680     3.60596581    -1.68410739    -1.84089383    -0.36447818
Ti      1.82188922     2.73962921     3.63431580     0.50713537     0.44476887     0.21374051
Ti      1.24015123    -1.09675679     3.93045979     2.68460936     0.23640531    -1.64332145
O       3.99465301     4.68784198     0.72341398    -0.73726873     0.98715794    -0.07686573
O       4.17915098     0.84453302     0.74031098    -1.52721656     0.38023545     0.86498756
O       0.13270998     4.85586697     0.75127802    -0.19536972    -0.33599574    -0.49225819
O      -0.21689399     1.03513801     0.65931501     1.12280631    -0.10736211     0.98240397
O       5.66158622     4.87852825     3.92444283     0.77733348    -0.50602517     0.17142580
O       5.25772222     0.92120324     3.95312181     1.24836824     1.57723996     0.10763953
O       1.90129322     4.69224621     3.99605179    -1.48866054     0.86429696     1.21312765
O       1.71348324     0.88872922     4.14637882    -0.30605009    -1.21963512    -1.10843409
O       3.60634121     2.93352922     3.07496883     1.74188961    -0.79314114     0.69963497
O      -0.05105179     2.58201424     3.18157884    -0.16425550     0.48896950     0.28384167
O       5.71163401     6.55904798     1.75270501    -0.37616950     0.49986609     0.97145312
O       5.77871098     3.11831898     1.68940202    -1.81913561    -0.56519605     0.19054427
O       1.99378700     6.62856700     1.90488400     0.40940154     0.15903744     1.03028821
O       1.85965602     3.04354602     1.44581300    -0.26851532    -1.29464785     0.43494288
