# total energy = -4982.80540797 eV

CRYSTAL
PRIMVEC
        4.50673063     0.00000000     0.00000000
       -0.00001003     4.50673063     0.00000000
       -2.25340066    -2.25340568     5.75159060
PRIMCOORD
6 1
Ti     -0.00019846     3.38021867     1.43789749    -0.00135780     0.00135780     0.00000000
Ti      2.25351828    -1.12689384     4.31369273     0.00135780    -0.00135780     0.00000000
O       0.00004502     1.12667500     0.93688705    -0.00039441    -0.00247186    -1.29929487
O       2.25327467     1.12664970     4.81470324     0.00039441     0.00247186     1.29929487
O      -0.00002545    -1.12665544     3.81268228    -0.00247186    -0.00039441    -1.29929487
O       2.25334508     3.37998008     1.93890800     0.00247186     0.00039441     1.29929487
