# total energy = -19939.38780408 eV

CRYSTAL
PRIMVEC
        5.86930344     0.00000000     0.00000000
        0.00002310     4.16447577     0.00000000
        0.00000000     0.00000000     9.11871755
PRIMCOORD
24 1
Ti      2.12735398     2.46786447     3.38297917    -0.37922243     2.27298228    -3.69123545
Ti      3.74197266     1.69661130     5.73573848     0.37922243    -2.27298228     3.69123545
Ti      5.06190452     1.69661275     1.17634320    -0.37595301    -2.27342528     3.69411200
Ti      0.80742212     2.46786322     7.94237450     0.37595301     2.27342528    -3.69411200
Ti      2.12734243     0.38562668     1.17637975    -0.37922243     2.27298228     3.69123545
Ti      3.74198421     3.77884924     7.94233794     0.37922243    -2.27298228    -3.69123545
Ti      0.80741057     0.38562513     5.73570187     0.37595301     2.27342528     3.69411200
Ti      5.06191607     3.77885079     3.38301572    -0.37595301    -2.27342528    -3.69411200
O       1.85767978     1.46638273     4.65321178     1.70980738    -2.26054276     3.07924788
O       4.01164686     2.69809309     4.46550587    -1.70980738     2.26054276    -3.07924788
O       1.07702265     1.46639952     0.09388231    -1.70933044    -2.26148147     3.07982457
O       4.79230409     2.69807631     9.02483503     1.70933044     2.26148147    -3.07982457
O       4.01163536     0.61585515     0.09385271    -1.70980738     2.26054276     3.07924788
O       1.85769128     3.54862062     9.02486464     1.70980738    -2.26054276    -3.07924788
O       4.79229254     0.61583842     4.65324133     1.70933044     2.26148147     3.07982457
O       1.07703405     3.54863745     4.46547626    -1.70933044    -2.26148147    -3.07982457
O       0.21325953     2.53307023     2.46319312     1.83482063    -0.55158848     1.61331898
O       5.65606710     1.63140559     6.65552453    -1.83482063     0.55158848    -1.61331898
O       3.14791782     1.63136675     2.09619471     1.83690991     0.55214152    -1.61321022
O       2.72140882     2.53310907     7.02252279    -1.83690991    -0.55214152     1.61321022
O       0.21324799     0.45083230     2.09616556     1.83482063    -0.55158848    -1.61331898
O       5.65607865     3.71364347     7.02255189    -1.83482063     0.55158848     1.61331898
O       2.72139732     0.45087113     6.65555358    -1.83690991    -0.55214152    -1.61321022
O       3.14792932     3.71360469     2.46316401     1.83690991     0.55214152     1.61321022
