# total energy = -19942.04386696 eV

CRYSTAL
PRIMVEC
        5.20939470     0.00000000     0.00000000
        0.00002422     4.53630397     0.00000000
        0.00000000     0.00000000     8.56168161
PRIMCOORD
24 1
Ti      1.88816937     2.68820944     3.17632292    -0.75110024     2.12249530    -3.66263423
Ti      3.32124961     1.84809434     5.38535903     0.75110024    -2.12249530     3.66263423
Ti      4.49277646     1.84809580     1.10448384    -0.74728061    -2.12252615     3.66116536
Ti      0.71664251     2.68820812     7.45719820     0.74728061     2.12252615    -3.66116536
Ti      1.88815745     0.42005755     1.10451817    -0.75142703     2.12248656     3.65904728
Ti      3.32126153     4.11624637     7.45716387     0.75142703    -2.12248656    -3.65904728
Ti      0.71663060     0.42005589     5.38532470     0.74677565     2.12251818     3.66500144
Ti      4.49278838     4.11624798     3.17635725    -0.74677565    -2.12251818    -3.66500144
O       1.64881486     1.59730967     4.36896072    -0.06782238    -2.55301100     2.17549732
O       3.56060412     2.93899410     4.19272123     0.06782238     2.55301100    -2.17549732
O       0.95593000     1.59732801     0.08814732     0.06859706    -2.55432586     2.17603006
O       4.25348903     2.93897581     8.47353438    -0.06859706     2.55432586    -2.17603006
O       3.56059220     0.67084207     0.08811953     0.06846233     2.55352290     2.17538085
O       1.64882678     3.86546171     8.47356218    -0.06846233    -2.55352290    -2.17538085
O       4.25347706     0.67082378     4.36898852    -0.06801496     2.55368746     2.17603674
O       0.95594182     3.86548004     4.19269343     0.06801496    -2.55368746    -2.17603674
O       0.18928400     2.75923724     2.31272388     1.85071648    -0.62327112     0.66834412
O       5.02013497     1.77706653     6.24895807    -1.85071648     0.62327112    -0.66834412
O       2.79398656     1.77702437     1.96814433     1.85177886     0.62307289    -0.66897764
O       2.41543241     2.75927940     6.59353748    -1.85177886    -0.62307289     0.66897764
O       0.18927203     0.49108521     1.96811697     1.85093657    -0.62307623    -0.66936356
O       5.02014694     4.04521856     6.59356483    -1.85093657     0.62307623     0.66936356
O       2.41542044     0.49112737     6.24898538    -1.85149707    -0.62312457    -0.66848861
O       2.79399853     4.04517640     2.31269653     1.85149707     0.62312457     0.66848861
