# total energy = -4983.18942703 eV

CRYSTAL
PRIMVEC
        3.66475533     0.00000000     0.00000000
        0.00000000     2.76472573     0.00000000
        0.00000000    -0.00007309     4.84720649
PRIMCOORD
6 1
Ti      1.83237762     1.38232617     2.42360329     0.00000000     0.00000000     0.00000000
Ti      0.00000000     0.00000000     0.00000000     0.00000000     0.00000000     0.00000000
O       1.83237762     0.53879002     0.94464918     0.00000000    -2.91357801    -2.57686159
O       1.83237762     2.22586232     3.90255741     0.00000000     2.91357801     2.57686159
O       0.00000000     0.84350709     3.36825347     0.00000000     2.91383924    -2.57789337
O       0.00000000     1.92114526     1.47895312     0.00000000    -2.91383924     2.57789337
