# total energy = -4985.28255387 eV

CRYSTAL
PRIMVEC
        3.98517110     0.00000000     0.00000000
        0.00000000     3.00645039     0.00000000
        0.00000000    -0.00007949     5.27100597
PRIMCOORD
6 1
Ti      1.99258550     1.50318529     2.63550304     0.00000000     0.00000000     0.00000000
Ti      0.00000000     0.00000000     0.00000000     0.00000000     0.00000000     0.00000000
O       1.99258550     0.58589735     1.02724145     0.00000000    -0.96233033     0.65812629
O       1.99258550     2.42047323     4.24376462     0.00000000     0.96233033    -0.65812629
O       0.00000000     0.91725634     3.66274558     0.00000000     0.96218352     0.65850656
O       0.00000000     2.08911424     1.60826049     0.00000000    -0.96218352    -0.65850656
