# total energy = -19879.11759266 eV

CRYSTAL
PRIMVEC
        9.41986983     0.00000000     0.00000000
        0.00003085     4.29668135     0.00000000
        0.00000000     0.00000000    14.33630564
PRIMCOORD
24 1
Ti      3.41426787     2.54620941     5.31866715     0.32326723    -0.36736347     2.67122342
Ti      6.00563240     1.75047201     9.01763870    -0.32326723     0.36736347    -2.67122342
Ti      8.12404156     1.75047348     1.84942844     0.30218469     0.36802193    -2.66949461
Ti      1.29585871     2.54620808    12.48687755    -0.30218469    -0.36802193     2.66949461
Ti      3.41425266     0.39786880     1.84948595     0.32300215    -0.36782473    -2.66766373
Ti      6.00564761     3.89881269    12.48682003    -0.32300215     0.36782473     2.66766373
Ti      1.29584349     0.39786720     9.01758119    -0.30158794    -0.36838600    -2.67066961
Ti      8.12405678     3.89881429     5.31872466     0.30158794     0.36838600     2.67066961
O       2.98145903     1.51293453     7.31570709     0.73139119     1.10722593    -2.50792772
O       6.43844124     2.78374682     7.02059876    -0.73139119    -1.10722593     2.50792772
O       1.72855247     1.51295186     0.14760029    -0.73248417     1.10663226    -2.50777114
O       7.69134787     2.78372956    14.18870515     0.73248417    -1.10663226     2.50777114
O       6.43842609     0.63540614     0.14755378    -0.73178765    -1.10703721    -2.50763358
O       2.98147418     3.66127528    14.18875165     0.73178765     1.10703721     2.50763358
O       7.69133272     0.63538881     7.31575359     0.73252479    -1.10689992    -2.50877901
O       1.72856748     3.66129261     7.02055226    -0.73252479     1.10689992     2.50877901
O       0.34226428     2.61348515     3.87259385    -2.15578287     0.65683534    -0.03534651
O       9.07763599     1.68319621    10.46371200     2.15578287    -0.65683534     0.03534651
O       5.05221118     1.68315618     3.29560465    -2.15581295    -0.65614757     0.03717302
O       4.36768909     2.61352525    11.04070099     2.15581295     0.65614757    -0.03717302
O       0.34224913     0.46514447     3.29555891    -2.15585306     0.65677363     0.03674571
O       9.07765114     3.83153695    11.04074674     2.15585306    -0.65677363    -0.03674571
O       4.36767394     0.46518450    10.46375768     2.15591785     0.65623087     0.03608802
O       5.05222633     3.83149692     3.87254810    -2.15591785    -0.65623087    -0.03608802
