# total energy = -4987.85535995 eV

CRYSTAL
PRIMVEC
        3.15000380     0.00000000     0.00000000
        1.44809264     4.71836993     0.00000000
       -0.00000964    -0.00006468     4.99332783
PRIMCOORD
6 1
Ti      2.29904346     2.35915267     2.49666391     0.00000000     0.00000000     0.00000000
Ti      0.00000000     0.00000000     0.00000000     0.00000000     0.00000000     0.00000000
O       1.85721196     0.91952829     0.97312603    -0.24636063     0.22718559    -0.02746196
O       2.74087502     3.79877703     4.02020174     0.24636063    -0.22718559     0.02746196
O       0.44182755     1.43959819     3.46979105     0.24596288    -0.22724729    -0.02741800
O       1.00625565     3.27870691     1.52353678    -0.24596288     0.22724729     0.02741800
