# total energy = -4941.77370148 eV

CRYSTAL
PRIMVEC
        4.49912414     0.00000000     0.00000000
       -0.00000637     2.42260560     0.00000000
       -2.24958705    -1.21135731     4.85366291
PRIMCOORD
6 1
Ti     -0.00019257     1.81703768     1.21341554    -0.02993151    -0.02831326    45.60211971
Ti      2.24972295    -0.60578924     3.64024699     0.02993151     0.02831326   -45.60211971
O       0.00004776     0.60564191     0.79062197     0.02956821     0.02778489   -33.52411773
O       2.24948253     0.60560643     4.06304065    -0.02956821    -0.02778489    33.52411773
O      -0.00001837    -0.60565834     3.21745343    -0.00105210    -0.00010619     0.38365656
O       2.24954856     1.81690667     1.63620920     0.00105210     0.00010619    -0.38365656
