# total energy = -4985.04923629 eV

CRYSTAL
PRIMVEC
        3.64577986     0.00000000     0.00000000
        1.71565479     3.21686795     0.00000000
       -2.68075158    -1.60845453     4.81483371
PRIMCOORD
6 1
Ti      1.28665507     2.41277485     1.20370811     0.00045971    -0.00045971     0.00000000
Ti      1.39402786    -0.80436155     3.61112501    -0.00045971     0.00045971     0.00000000
O       0.42895148     0.80421289     0.78429697     0.00048003     0.00047180    -3.10619125
O       2.25173130     0.80420040     4.03053620    -0.00048003    -0.00047180     3.10619125
O      -0.42891683    -0.80419206     3.19171382     0.00047180     0.00048003    -3.10619125
O       3.10959954     2.41260527     1.62311930    -0.00047180    -0.00048003     3.10619125
