# total energy = -19866.85577145 eV

CRYSTAL
PRIMVEC
       10.09271738     0.00000000     0.00000000
        0.00003138     3.58056779     0.00000000
        0.00000000     0.00000000    16.05666210
PRIMCOORD
24 1
Ti      3.65814298     2.12184104     5.95690725     0.30745726     0.00353887     1.88529449
Ti      6.43460537     1.45872641    10.09975533    -0.30745726    -0.00353887    -1.88529449
Ti      8.70432951     1.45872757     2.07135989     0.30715361    -0.00338640    -1.88584162
Ti      1.38841891     2.12184002    13.98530283    -0.30715361     0.00338640     1.88584162
Ti      3.65812770     0.33155721     2.07142428     0.30745726     0.00353887    -1.88529449
Ti      6.43462072     3.24901038    13.98523844    -0.30745726    -0.00353887     1.88529449
Ti      1.38840356     0.33155599    10.09969093    -0.30715361     0.00338640    -1.88584162
Ti      8.70434486     3.24901160     5.95697165     0.30715361    -0.00338640     1.88584162
O       3.19441967     1.26077868     8.19359196     0.12214107     0.55186821    -2.12074720
O       6.89832875     2.31978884     7.86307062    -0.12214107    -0.55186821     2.12074720
O       1.85201982     1.26079321     0.16531236    -0.12099976     0.55191938    -2.12030523
O       8.24072867     2.31977430    15.89134973     0.12099976    -0.55191938     2.12030523
O       6.89831341     0.52950487     0.16526022    -0.12214107    -0.55186821    -2.12074720
O       3.19443501     3.05106258    15.89140188     0.12214107     0.55186821     2.12074720
O       8.24071332     0.52949041     8.19364403     0.12099976    -0.55191938    -2.12030523
O       1.85203496     3.05107711     7.86301855    -0.12099976     0.55191938     2.12030523
O       0.36671060     2.17790430     4.33730509    -1.56881085     0.52240182     0.18077253
O       9.72603781     1.40266315    11.71935742     1.56881085    -0.52240182    -0.18077253
O       5.41308264     1.40262996     3.69107721    -1.56966652    -0.52241133    -0.18141942
O       4.67966578     2.17793756    12.36558509     1.56966652     0.52241133     0.18141942
O       0.36669526     0.38762040     3.69102596    -1.56881085     0.52240182    -0.18077253
O       9.72605316     3.19294712    12.36563634     1.56881085    -0.52240182     0.18077253
O       4.67965050     0.38765359    11.71940861     1.56966652     0.52241133    -0.18141942
O       5.41309792     3.19291386     4.33725384    -1.56966652    -0.52241133     0.18141942
