# total energy = -19956.34508721 eV

CRYSTAL
PRIMVEC
        5.04552267     0.00000000     0.00000000
        1.06338510     5.26362066     0.00000000
        0.00000000     0.00000000     9.07631821
PRIMCOORD
24 1
Ti      2.45892024     3.11921673     3.36724944     1.38570068    -1.17788630     0.66354772
Ti      3.64998729     2.14440406     5.70906913    -1.38570068     1.17788630    -0.66354772
Ti      4.78466164     2.14440595     1.17087358    -2.30432712    -0.46932497     1.17986965
Ti      1.32424591     3.11921505     7.90544509     2.30432712     0.46932497    -1.17986965
Ti      1.92722781     0.48740659     1.17090998     1.38559963    -1.17348637    -0.66369479
Ti      4.18167973     4.77621435     7.90540869    -1.38559963     1.17348637     0.66369479
Ti      0.79255339     0.48740456     5.70903274     2.30381342     0.47476594     1.17892194
Ti      5.31635415     4.77621638     3.36728583    -2.30381342    -0.47476594    -1.17892194
O       1.97137566     1.85341034     4.63157585    -0.33412784     0.17061204    -0.62653154
O       4.13753186     3.41021045     4.44474272     0.33412784    -0.17061204     0.62653154
O       1.30029127     1.85343154     0.09344580     0.71016210    -0.75970573     0.19007221
O       4.80861631     3.41018930     8.98287252    -0.71016210     0.75970573    -0.19007221
O       3.60583942     0.77840016     0.09341633     0.33446311    -0.17030171    -0.62663567
O       2.50306810     4.48522063     8.98290198    -0.33446311     0.17030171     0.62663567
O       4.27692387     0.77837901     4.63160531    -0.70958591     0.75961754     0.19041186
O       1.83198361     4.48524184     4.44471326     0.70958591    -0.75961754    -0.19041186
O       0.83012655     3.20163240     2.45174007    -0.37846653    -0.36647387    -0.70590666
O       5.27878098     2.06198839     6.62457850     0.37846653     0.36647387     0.70590666
O       3.12265082     2.06193922     2.08644809     0.81930161    -0.76331865    -0.95866959
O       2.98625670     3.20168157     6.98987033    -0.81930161     0.76331865     0.95866959
O       0.29843411     0.56982211     2.08641908    -0.37812637    -0.36693538     0.70743775
O       5.81047342     4.69379873     6.98989933     0.37812637     0.36693538    -0.70743775
O       2.45456426     0.56987123     6.62460745    -0.81896557     0.76305768    -0.95883363
O       3.65434327     4.69374956     2.45171107     0.81896557    -0.76305768     0.95883363
