# total energy = -19516.57462871 eV

CRYSTAL
PRIMVEC
        5.17600016     0.00000000     0.00000000
        0.00000000     5.50899976     0.00000000
        0.00000000     0.00000000     9.26300011
PRIMCOORD
23 1
Ti      1.88531799     3.24637299     3.45159999     0.07366882     0.30886957     0.78588857
Ti      3.31245098     2.25574699     5.87309202     1.20148287     0.34831210    -3.04325268
Ti      4.35186401     2.05906001     1.47876799    -0.89124727     0.36132549     0.17121959
Ti      0.91227501     3.22522897     7.78078902    -0.19638762     1.86709981     1.17313721
Ti      1.84791802     0.28748401     1.33686498     1.60124328    -1.75690718    -0.25035458
Ti      3.37490602     5.24222600     7.85216202     0.47481942    -2.24470759     2.23379145
Ti      0.75257302     0.58021200     5.92457700    -1.51557717    -0.31212510    -2.68509607
Ti      4.53466702     4.89829201     3.42818999    -0.49689801    -1.08397390     3.05645607
O       1.69883498     1.87763799     4.61061602    -0.20564436    -1.03343679     1.48902281
O       3.66647702     3.32674501     4.32341898    -0.49766394     0.17881104     0.12542694
O       4.91353602     2.78336798     9.25859000     0.58908623    -0.12687062    -1.45088974
O       3.66824701     0.37395099     0.31358298    -0.13299216     1.05841481    -0.10581867
O       1.77887103     4.50402898     9.09771800    -0.22253497     0.93294004     0.24123641
O       4.21876598     0.65492500     4.98176200    -0.05176250    -0.14511414    -0.47361923
O       0.90129702     4.63423701     4.47586902     0.81569641     0.48552113     1.61034139
O       0.26661802     3.47879902     2.49110900    -1.10831454    -1.03937552    -1.65167497
O       5.08712198     2.40166402     6.44793002     0.77620219    -1.02558078     1.08820825
O       2.43668200     2.04812101     1.91080200     0.80899611     0.39458375    -0.72237330
O       2.56937198     3.72667898     6.88021697     0.10412072    -0.29558133     0.04062422
O       0.06075701     0.61404098     2.25654102     1.65450987     1.19089609    -1.20978522
O       5.13971400     4.76484801     7.05340499    -0.28060722     0.79019003     1.51693420
O       2.45221097     1.05444901     7.09464499    -2.19363132     0.76913320     0.01434882
O       2.69308098     4.97337798     2.79034201    -0.30656508     0.37757590    -1.95377122
