# total energy = -39029.54963586 eV

CRYSTAL
PRIMVEC
        5.93200024     0.00000000     0.00000000
        0.00000000     9.29399984     0.00000000
        0.00000000     0.00000000     9.29399984
PRIMCOORD
46 1
Ti      4.46165501     7.09706402     6.81157898    -0.96324693     0.76584784     1.05677187
Ti      4.48701202     6.67411900     2.30516098     0.05581559     0.67271242    -0.46145302
Ti      4.39204899     2.16633699     6.94446100     2.70943749     0.48297677     0.20044276
Ti      4.22102298     2.78770798     2.05865497     0.98319613    -1.06266098     2.00693857
Ti      1.40807700     6.86402299     7.06988500    -1.24239685     1.61161871     1.07788346
Ti      1.58265999     7.01443802     1.96182797    -0.30666099     0.62093733     0.98466320
Ti      1.45239703     2.35106800     6.91254801    -0.89058316    -0.45794990    -0.39255361
Ti      1.33740702     1.79522800     3.02205401    -2.80158612     2.35157605    -0.87789759
Ti      3.05232401     4.70117502     4.97130101    -0.09054400     1.30804151    -2.16984064
Ti      2.94329101     4.86567501     8.77692101     2.20794491     0.31193844     1.33156557
Ti      2.97537698     0.03656699     4.57747301    -1.43950026    -2.18929155     1.28530266
Ti      2.86698100     0.21534000     0.10407699     0.34680029    -2.60417674    -0.27257406
Ti      0.08594098     4.62532598     4.58670499     0.20070450     0.24010693    -0.92203059
Ti      0.08002001     4.63901702     0.13371198    -1.87581663     0.45623703    -0.49744463
Ti      5.77580098     9.01847899     4.81409399     1.77276060    -0.28407435    -0.99804297
Ti      5.83001498     0.12349499     0.00086499    -0.57673285    -3.33925155    -0.28955620
O       4.71706701     5.81272300     5.45426802    -0.95643170    -1.81709132    -1.22586490
O       4.43079900     5.92360400     0.55627102    -0.52556453    -2.41504581     0.46392360
O       4.48426601     0.95923500     5.52155999     0.22086221     0.06939127    -0.34245641
O       4.47555501     0.85710802     1.07886102    -0.63598960     1.80835548    -0.40731791
O       1.47465300     5.56929300     5.59512098    -0.53713013    -0.00828744    -1.60361281
O       1.45192902     5.72285299     0.59857599     2.38825722     0.24544968     0.18351076
O       1.52093400     0.83439499     5.73380399    -0.12366034     1.36125230    -1.38012832
O       1.64975400     0.87260000     1.36351599    -1.06964333     0.13271191    -1.84870073
O       4.53345700     8.49849001     8.08747402     0.48246923     1.28678979     2.65159433
O       4.42297601     8.06357198     3.95264401     0.40162420     1.71511696    -0.86014848
O       4.52301702     3.80997301     8.60900899    -1.33698108    -1.79800730    -0.34592149
O       4.35939801     4.00129202     3.69243401    -0.67197760    -1.30965256     0.19444309
O       1.52100999     8.32593102     8.37952398     0.54920044     1.24615966     1.19693561
O       1.39231599     8.36749699     3.89536200     0.53890239     0.97839639    -1.65436897
O       1.57277802     3.66862299     8.51506998    -0.29504191    -0.28583479    -0.10090864
O       1.63611498     3.71063702     3.94087500     0.35595728    -0.99356410    -0.01431848
O       2.96507602     5.95145502     7.27637700     1.82353091    -2.11301898     2.75943672
O       2.89168802     5.91744501     2.96500199    -0.23581653     1.09310697    -0.00165605
O       2.99772800     1.41715001     7.77641199    -0.61595658    -0.55728450     1.95281811
O       3.04404800     1.52713802     3.26606198     2.81602184    -0.16127585     0.80220737
O       5.88615598     5.91904799     7.84755299     0.90040555     0.27265839    -0.38105486
O       0.08891702     5.79749497     2.92936597     0.15377902     0.94615140    -0.01024019
O       0.12883699     1.48136202     8.04481503    -0.21593109     1.16400671    -1.03255104
O       3.03985199     8.01621300     6.03961801    -0.40390040    -0.17288387    -0.06011730
O       3.11858902     7.86278700     1.27622498    -1.46963129     0.63684166     0.62834339
O       3.20414301     3.34986202     6.18503402    -1.13634600    -0.20731661     0.43669792
O       0.13174302     7.83688398     6.19858302     0.05905003     1.25025723    -1.34902696
O       5.83281502     7.81995301     1.24900500     1.44283421     0.60307715     1.21824081
O       0.04323098     3.28382599     5.99283202    -0.15315939    -1.01328679     1.08303724
O       0.04331501     3.14509402     2.07411801     0.16067550    -0.84176123    -2.01497044
