# total energy = -19960.91442919 eV

CRYSTAL
PRIMVEC
        5.93400000     0.00000000     0.00000000
        0.00000000     9.29699974     0.00000000
        0.00000000     0.00000000     4.64899994
PRIMCOORD
24 1
Ti      4.47585701     7.03847002     2.46223402    -1.35017290    -0.85938667    -0.98015862
Ti      4.44505498     2.34911899     2.38104902     0.25943032    -0.97718129    -0.09132613
Ti      1.46151401     6.96782401     2.25655102     1.33550835     0.29884894     0.42230925
Ti      1.49115402     2.37116600     2.27118103    -0.21119306    -1.13515866    -0.01741126
Ti      2.93807501     4.60733798     0.03510498     1.20125995     0.36716138    -0.69610458
Ti      2.95960602     9.21320199     4.61443700     0.08616490     1.62026199     1.19191347
Ti      0.00594700     4.71159500     0.02727999    -1.09890481    -0.58417362     0.03171200
Ti      0.01879003     9.26044900     4.59236999     0.15742562     1.76487297     0.95384595
O       4.33015800     5.59997898     0.89923201     1.37614851    -0.23838789    -0.06348287
O       4.37844897     0.90176502     0.76562799     0.71712670     0.08770293     0.58404687
O       1.53211901     5.49571598     0.94696200    -1.04563822     0.43265306     0.11204203
O       1.50574301     0.91722102     0.89096700    -0.13121064    -0.08857659    -0.65481574
O       4.47398902     8.42844700     3.71472597    -0.08199714    -0.97275205    -0.15248319
O       4.46613603     3.75492498     3.73435602     0.27358399     0.02364619    -0.07429720
O       1.47895601     8.31502097     3.83902003    -0.44529209    -0.26867370    -0.78493520
O       1.44936399     3.69168300     3.74542000    -0.10428784     0.41378861     0.04020641
O       2.88883100     6.15028501     3.28597201     0.63376611    -0.43954208    -0.21719839
O       3.01732301     1.35158500     3.12298399    -0.43160045     0.44370778     0.11726086
O       0.00510503     6.06902201     3.24568998    -0.16580382    -0.15707338     0.20636093
O       0.01687499     1.30078499     3.11565002     0.26602931     0.66407428     0.14092582
O       2.95278402     7.91860900     1.50966199     0.05158149    -0.05691910    -0.55085211
O       3.08946897     3.25163100     1.34489202    -0.99057931    -0.53823185     0.80213692
O       5.93263398     7.92678299     1.45578498    -0.32366036    -0.48293871     0.06546468
O       0.02493002     3.20245498     1.41634900     0.02231513     0.68227744    -0.38515988
