# total energy = -19916.99118819 eV

CRYSTAL
PRIMVEC
        6.34870925     0.00000000     0.00000000
        3.17976659     5.96199780     0.00000000
        0.00000000     0.00000000    11.75841742
PRIMCOORD
24 1
Ti      4.18542852     3.53307438     4.36228902     0.33758083    -2.59472382     0.46721744
Ti      5.34304749     2.42892357     7.39612853    -0.33758083     2.59472382    -0.46721744
Ti      6.77079282     2.42892570     1.51687278    -1.22924642    -1.35184283     0.67363571
Ti      2.75768339     3.53307253    10.24154483     1.22924642     1.35184283    -0.67363571
Ti      2.59554547     0.55207568     1.51691994     0.33758083    -2.59472382    -0.46721744
Ti      6.93293067     5.40992250    10.24149773    -0.33758083     2.59472382     0.46721744
Ti      1.16780004     0.55207339     7.39608136     1.22924642     1.35184283     0.67363571
Ti      8.36067608     5.40992473     4.36233612    -1.22924642    -1.35184283    -0.67363571
O       3.12905650     2.09932082     6.00023043     1.77060525     2.03846699    -1.01453300
O       6.39941959     3.86267717     5.75818712    -1.77060525    -2.03846699     1.01453300
O       2.28464793     2.09934482     0.12105950     0.45797586    -1.32778707     1.80141324
O       7.24382823     3.86265322    11.63735766    -0.45797586     1.32778707    -1.80141324
O       4.80953642     0.88167825     0.12102134    -1.77060525    -2.03846699    -1.01453300
O       4.71893965     5.08031969    11.63739583     1.77060525     2.03846699     1.01453300
O       5.65394506     0.88165429     6.00026853    -0.45797586     1.32778707     1.80141324
O       3.87453097     5.08034372     5.75814895     0.45797586    -1.32778707    -1.80141324
O       2.16477756     3.62642499     3.17624189     0.67628703     3.17113117     2.94664035
O       7.36369853     2.33557301     8.58217559    -0.67628703    -3.17113117    -2.94664035
O       4.65065334     2.33551732     2.70300422     0.68562399     2.06027998     1.86612279
O       4.87782275     3.62648067     9.05541307    -0.68562399    -2.06027998    -1.86612279
O       0.57489438     0.64542606     2.70296669     0.67628703     3.17113117    -2.94664035
O       8.95358169     5.31657188     9.05545060    -0.67628703    -3.17113117     2.94664035
O       3.28793957     0.64548174     8.58221306    -0.68562399    -2.06027998     1.86612279
O       6.24053650     5.31651619     3.17620436     0.68562399     2.06027998    -1.86612279
