# total energy = -19518.86350809 eV

CRYSTAL
PRIMVEC
        7.60600008     0.00000000     0.00000000
        0.00000000     7.60600008     0.00000000
       -1.89786986    -1.89786986     4.85670466
PRIMCOORD
23 1
Ti      3.80390700     6.70261001     1.16949702     0.45142778    -1.16120961    -0.43051364
Ti      3.84371700     2.79715802     1.18111399    -0.12198861     1.74431236     0.38420420
Ti      0.08255498     6.67286099     1.23712899    -1.03173060    -0.25919198    -0.76627773
Ti     -0.01792101     2.79119298     1.14998599    -0.27534031     0.24207434    -0.16236574
Ti      5.53192023     2.81715521     3.74455480     0.19687201     1.00925041     0.69240657
Ti      5.70182423    -0.92604579     3.53163583     0.39944622    -0.72638396     0.83526739
Ti      2.01528525     2.91342922     3.62528581    -1.23151850    -0.71148596     1.21014594
Ti      1.94058225    -0.92965076     3.60437082    -0.74809102     0.22873005    -0.11031914
O       3.88330401     4.66899099     0.70464401    -0.30064923     0.65936659     1.66337092
O       3.69480700     0.99486000     0.70540301     0.00818177    -0.91023359     0.88578419
O      -0.16014401     4.69679502     0.87073301     0.44756418     0.20574335     0.12144276
O       0.07515598     0.92556101     0.75461501     0.15475630    -0.14953953     0.07128695
O       5.69412824     4.68565224     4.10540383     0.63464645     0.73475702    -0.62859510
O       5.62983924     0.95385723     4.07167180     0.35392405    -0.59856358    -0.30555927
O       1.89657724     4.74069424     4.06747881    -0.64093100     0.83603873     0.14955290
O       1.83462324     0.98389524     4.03104379    -0.01048162    -0.58271992    -0.13962201
O       3.74295721     2.92995722     3.42031683     1.52927216    -0.27808368    -1.78246575
O       3.78613320    -0.94478777     3.33948480     0.24291226     0.08531875    -1.21269108
O      -0.01115178    -0.82846376     3.24067682     0.19799121    -0.45823375    -0.54777502
O       5.70253401     6.74248600     1.53628802    -0.76878841    -0.08384602     0.94514559
O       5.78813198     2.68675900     1.83420698    -0.34930943    -0.05913000    -0.77618728
O       1.90680899     6.44406501     1.56012100     0.71627438     0.50596681     0.77700283
O       1.78704703     2.90728902     1.76046799     0.14556023    -0.27293684    -0.87323849
