# total energy = -4987.80047742 eV

CRYSTAL
PRIMVEC
        4.15707330     0.00000000     0.00000000
        0.62006396     4.11056920     0.00000000
       -2.38860609    -2.05531683     5.32042005
PRIMCOORD
6 1
Ti      0.46489680     3.08308402     1.33010472    -0.00061629     0.00061629     0.00000000
Ti      1.92363481    -1.02783128     3.99031475     0.00061629    -0.00061629     0.00000000
O       0.15505971     1.02763615     0.86665281    -0.00056281    -0.00155140    -1.06649116
O       2.23347170     1.02761643     4.45376666     0.00056281     0.00155140     1.06649116
O      -0.15503428    -1.02761427     3.52686284    -0.00155140    -0.00056281    -1.06649116
O       2.54356564     3.08286685     1.79355664     0.00155140     0.00056281     1.06649116
