# total energy = -4986.55365968 eV

CRYSTAL
PRIMVEC
        3.25285135     0.00000000     0.00000000
        1.73084826     4.79383196     0.00000000
       -0.00001125    -0.00006753     5.17904286
PRIMCOORD
6 1
Ti      2.49184417     2.39688216     2.58952143     0.00000000     0.00000000     0.00000000
Ti      0.00000000     0.00000000     0.00000000     0.00000000     0.00000000     0.00000000
O       1.96374028     0.93423407     1.00931919     0.36377704     0.08892369    -0.33598392
O       3.01994806     3.85953024     4.16972373    -0.36377704    -0.08892369     0.33598392
O       0.52809916     1.46262079     3.59884165    -0.36355644    -0.08883987    -0.33531414
O       1.20273795     3.33114351     1.58020127     0.36355644     0.08883987     0.33531414
