# total energy = -19908.30516443 eV

CRYSTAL
PRIMVEC
        6.59828370     0.00000000     0.00000000
        1.72866624     6.80648148     0.00000000
        0.00000000     0.00000000    11.90427957
PRIMCOORD
24 1
Ti      3.41596657     4.03351482     4.41640304    -0.27854699    -1.78912748     0.65673610
Ti      4.91098356     2.77296711     7.48787720     0.27854699     1.78912748    -0.65673610
Ti      6.39485444     2.77296946     1.53568955     0.20740840    -0.39964240    -0.26510912
Ti      1.93209572     4.03351274    10.36859082    -0.20740840     0.39964240     0.26510912
Ti      2.55163359     0.63027413     1.53573728    -0.27854699    -1.78912748    -0.65673610
Ti      5.77531657     6.17620806    10.36854309     0.27854699     1.78912748     0.65673610
Ti      1.06776261     0.63027152     7.48782947    -0.20740840     0.39964240    -0.26510912
Ti      7.25918755     6.17621061     4.41645077     0.20740840    -0.39964240     0.26510912
O       2.69709123     2.39667799     6.07466302     1.77893382     1.95671745    -0.57595303
O       5.62985883     4.40980395     5.82961721    -1.77893382    -1.95671745     0.57595303
O       1.81948177     2.39670546     0.12256126    -0.78617653     0.15793598     0.92085277
O       6.50746844     4.40977660    11.78171864     0.78617653    -0.15793598    -0.92085277
O       4.76552583     1.00656306     0.12252264    -1.77893382    -1.95671745    -0.57595303
O       3.56142430     5.79991887    11.78175726     1.77893382     1.95671745     0.57595303
O       5.64313543     1.00653564     6.07470165     0.78617653    -0.15793598     0.92085277
O       2.68381464     5.79994636     5.82957859    -0.78617653     0.15793598    -0.92085277
O       1.29120371     4.14008803     3.21564308     0.52338424     1.59713619     1.72121331
O       7.03574635     2.66639391     8.68863715    -0.52338424    -1.59713619    -1.72121331
O       4.21606328     2.66633043     2.73653492     0.58598728     1.65885863     0.89246109
O       4.11088686     4.14015156     9.16774511    -0.58598728    -1.65885863    -0.89246109
O       0.42687070     0.73684714     2.73649690     0.52338424     1.59713619    -1.72121331
O       7.90007943     6.06963486     9.16778314    -0.52338424    -1.59713619     1.72121331
O       3.24655384     0.73691061     8.68867511    -0.58598728    -1.65885863     0.89246109
O       5.08039629     6.06957133     3.21560506     0.58598728     1.65885863    -0.89246109
