# total energy = -4921.15488052 eV

CRYSTAL
PRIMVEC
        5.70757490     0.00000000     0.00000000
       -0.00000740     2.16494190     0.00000000
       -2.85382167    -1.08257371     6.29911113
PRIMCOORD
6 1
Ti     -0.00024387     1.62376770     1.57477751    -0.04004598    -0.02589745    72.30064148
Ti      2.85398976    -0.54139978     4.72433313     0.04004598     0.02589745   -72.30064148
O       0.00006059     0.54121825     1.02607365     0.03807728     0.02688166   -67.27304150
O       2.85368512     0.54114961     5.27303705    -0.03807728    -0.02688166    67.27304150
O      -0.00002474    -0.54127788     4.17562921    -0.00143468     0.00005811    -0.84099042
O       2.85377035     1.62364568     2.12348148     0.00143468    -0.00005811     0.84099042
