# total energy = -19517.86499910 eV

CRYSTAL
PRIMVEC
        5.93400000     0.00000000     0.00000000
        0.00000000     9.29699974     0.00000000
        0.00000000     0.00000000     4.64899994
PRIMCOORD
23 1
Ti      4.45159799     6.97212300     2.31448000     0.31378757     0.45521013    -0.87770501
Ti      4.49198099     2.37529199     2.35038902    -0.52367374    -0.69754389     0.08370872
Ti      1.46064902     6.99517100     2.32470201    -0.19280684     0.72371850    -0.64792184
Ti      1.42133601     2.28535700     2.25293700     0.67191024    -0.29655269     0.58455543
Ti      2.92923500     4.50121000     0.01595099     0.31704465    -0.29981362     1.08127758
Ti      2.96330597     0.06219902     0.02440100     0.27896377     0.42615459    -0.46269153
Ti      0.01383100     4.69475801     4.59069498    -0.38312922    -0.26531172     0.79582897
Ti      5.91902900     9.28535800     4.62602000    -0.16503557     0.33490122    -0.05673733
O       4.36752601     5.55566700     0.94562699     0.10436600     0.42447926     0.11028443
O       4.51618598     1.00084399     0.89404502    -0.13101627    -0.95761210     0.33708872
O       1.49740900     5.49996099     0.93125501     0.53994806     0.53952846     0.07229225
O       1.43118099     0.96719599     0.83246598     0.52911163    -0.00705074     1.21993542
O       4.52141198     8.39300598     3.71507798    -0.64191599    -0.60698240     0.03586767
O       4.46401302     3.64485600     3.86026300    -0.13486135     0.87202030    -0.85968157
O       1.56632502     8.50904699     3.66829898    -0.63578005    -1.25219430     0.16899739
O       1.48538498     3.70021800     3.77262400     0.12850096     0.33834907    -0.49176480
O       2.96049700     1.42470798     3.32884601     0.20586831     0.39876488    -0.98075615
O       0.11052798     5.98143699     3.26008202    -0.74420351     0.82664057    -0.38835396
O       5.88242702     1.48051502     3.36067898     0.70550506     0.07536729    -1.54313607
O       2.89979603     7.93683001     1.47499702     1.01448081    -0.83391962     0.24065252
O       3.02299500     3.15152199     1.35064000    -0.81228558     0.22775663     0.81164795
O       0.02733301     7.79210902     1.39815498    -0.17445250     0.37603118    -0.11295246
O       0.05950101     3.32282498     1.43126502    -0.27032640    -0.80194100     0.87956289
