# total energy = -19959.47744149 eV

CRYSTAL
PRIMVEC
        7.60600008     0.00000000     0.00000000
        0.00000000     7.60600008     0.00000000
       -1.89786986    -1.89786986     4.85670466
PRIMCOORD
24 1
Ti      3.87792403     6.63786401     1.03420899    -0.45743670    -0.59340466     2.45244560
Ti      3.78107999     2.64060702     1.21026901     0.77600062     0.44177791     1.06173359
Ti     -0.06454401     6.71742401     1.17072799    -0.03597592     1.74259050     0.46806796
Ti      0.00341499     2.95459402     1.28724499    -1.14979519    -1.80562626    -0.88899087
Ti      5.62250124     2.94321724     3.71211083    -0.48591477    -0.33673545    -1.33874177
Ti      5.71065122    -0.81561179     3.69061682    -0.96653409     0.14150560    -0.20940460
Ti      1.81904621     2.70439923     3.73995180     1.53605705     0.41728094    -0.79453545
Ti      1.97978920    -0.99126477     3.62927882     1.55368942     0.11189137    -1.47708132
O       3.95656500     4.73442799     0.76457699    -0.74829620    -1.27078055     0.02978778
O       4.19468201     0.86906102     0.72771598    -1.27332260     1.55518992    -0.39745490
O      -0.20109101     4.87708698     0.82900199     0.99587038    -0.78874147     0.08849355
O      -0.27976400     1.08895100     0.74298402     1.24880352    -1.34693023     0.32679196
O       5.43951223     4.91713422     4.03374281     1.04348286    -1.52218337     0.43695812
O       5.43099422     1.07796824     4.13330682     1.53573411     0.43898363     0.17006414
O       2.19630821     4.76648920     4.03532579    -1.13066823    -0.76104270    -1.33614984
O       2.05839425     0.91580023     4.08713483    -1.00617228    -0.36145379     0.50638667
O       3.85139722     2.86372021     3.16930880    -1.23692142     0.15229241    -0.65067292
O       3.79261922    -0.80917478     3.20207879    -1.10532229    -0.18869282    -0.61227913
O       0.02077121     2.82117225     3.26760184    -0.23854447     0.81498421     0.77479374
O      -0.01454576    -0.86276778     3.16626180     1.50447900    -0.03284431     0.45325763
O       5.67924799     6.71020100     1.75208899     0.70932546    -0.30714847    -0.96786746
O       5.77654400     2.67475700     1.63075400    -0.84223252     1.42330282     1.18629407
O       2.01350600     6.69690198     1.33512002    -1.33671934    -0.06825279     0.94083462
O       1.84683199     2.23664099     1.64928298     1.11041359     2.14403755    -0.22273115
