# total energy = -19959.81967446 eV

CRYSTAL
PRIMVEC
        5.13838805     0.00000000     0.00000000
        0.81575909     5.40761465     0.00000000
        0.00000000     0.00000000     9.22270207
PRIMCOORD
24 1
Ti      2.34583659     3.20454738     3.42155672     0.84688724    -0.89376207     0.54960050
Ti      3.60831049     2.20306712     5.80114556    -0.84688724     0.89376207    -0.54960050
Ti      4.76386904     2.20306894     1.18975754    -1.29213434    -0.49018511     0.72067663
Ti      1.19027805     3.20454576     8.03294485     1.29213434     0.49018511    -0.72067663
Ti      1.93795716     0.50074015     1.18979453     0.84688724    -0.89376207    -0.54960050
Ti      4.01618993     4.90687450     8.03290786    -0.84688724     0.89376207     0.54960050
Ti      0.78239859     0.50073817     5.80110858     1.29213434     0.49018511     0.72067663
Ti      5.17174850     4.90687648     3.42159371    -1.29213434    -0.49018511    -0.72067663
O       1.91357488     1.90411298     4.70627432     0.04304105     0.35671267    -0.45639849
O       4.04057220     3.50350151     4.51642791    -0.04304105    -0.35671267     0.45639849
O       1.23013773     1.90413484     0.09495288     0.33485134    -0.48679974     0.29573997
O       4.72400940     3.50347970     9.12774914    -0.33485134     0.48679974    -0.29573997
O       3.63269275     0.79969413     0.09492297    -0.04304105    -0.35671267    -0.45639849
O       2.32145433     4.60792036     9.12777905     0.04304105     0.35671267     0.45639849
O       4.31612995     0.79967232     4.70630428    -0.33485134     0.48679974     0.29573997
O       1.63801708     4.60794223     4.51639800     0.33485134    -0.48679974    -0.29573997
O       0.68288043     3.28921776     2.49128196    -0.25886828    -0.03307700    -0.26412490
O       5.27126664     2.11839668     6.73142032     0.25886828     0.03307700     0.26412490
O       3.07545426     2.11834639     2.12009852     0.55992631    -0.24322131    -0.46313761
O       2.87869282     3.28926805     7.10260361    -0.55992631     0.24322131     0.46313761
O       0.27500099     0.58541038     2.12006902    -0.25886828    -0.03307700     0.26412490
O       5.67914609     4.82220406     7.10263305     0.25886828     0.03307700    -0.26412490
O       2.47081337     0.58546067     6.73144971    -0.55992631     0.24322131    -0.46313761
O       3.48333370     4.82215377     2.49125252     0.55992631    -0.24322131     0.46313761
