# total energy = -19517.71182330 eV

CRYSTAL
PRIMVEC
        5.17600016     0.00000000     0.00000000
        0.00000000     5.50899976     0.00000000
        0.00000000     0.00000000     9.26300011
PRIMCOORD
23 1
Ti      1.94482101     3.27270501     3.47103101    -0.17803096     0.24510541     1.06110135
Ti      3.37429402     2.26245098     5.91844399     1.78171499    -0.36626304    -0.11728040
Ti      4.31811700     2.22849002     1.33220801     0.81258897    -1.77167405    -0.02105709
Ti      0.76406802     3.34899200     7.87479001    -0.67378020    -0.02793607    -0.13169838
Ti      1.86046000     0.36593797     1.34082000     1.08548339    -0.79040703    -1.11823643
Ti      3.36221301     5.08071899     7.99388299     0.12976671    -0.06936762     1.00132678
Ti      0.77836502     0.53272099     5.74393800    -0.80089019     0.16242847     0.17183692
Ti      4.52854899     4.84472001     3.35781201    -0.38258029     0.90587274     1.50804409
O       1.88260898     1.88647001     4.91255900    -1.55555758     0.28631841    -1.40977212
O       3.71659101     3.53477502     4.50522100    -1.23368955    -0.44586031     0.49366716
O       4.52935498     3.27160898     9.21776000    -0.05651055     1.87550707    -1.06037862
O       3.57283397     0.74911898     0.17094097    -0.43438238     0.10489693     0.01790491
O       1.79745203     4.61464200     9.09683898    -0.72012127     0.17221332     0.57063290
O       4.37804997     0.77221000     4.75263402    -0.54763978     1.14985612     0.36344048
O       0.92810498     4.74621198     4.41096199     2.39850255    -1.30899230    -0.08305489
O       0.17445000     3.33989502     2.49219899     1.37563326    -0.82464565     0.05250040
O       4.99028900     1.80752798     7.21259500     0.59436445     0.23200512    -1.76478812
O       2.72968999     2.04361999     2.18213198    -1.91765698    -0.18121990     0.28721907
O       2.47829698     3.44158399     7.08289699     0.65495586     0.02894163     0.03120780
O       0.08568200     0.50336298     2.01463198     1.30341043     1.11888769    -0.78082298
O       5.13344701     4.61550398     6.81805399    -0.86999401    -0.24297011     1.59355927
O       2.47939402     0.73046998     6.95726598    -0.41828470    -0.29286161    -0.69591869
O       2.79826898     4.73468702     2.43845300    -0.34730217     0.04016476     0.03056657
