# total energy = -4987.27415065 eV

CRYSTAL
PRIMVEC
        3.38216665     0.00000000     0.00000000
        0.00000000     3.53289871     0.00000000
        0.00000000    -0.00006175     4.60012812
PRIMCOORD
6 1
Ti      1.69108317     1.76641843     2.30006401     0.00000000     0.00000000     0.00000000
Ti      0.00000000     0.00000000     0.00000000     0.00000000     0.00000000     0.00000000
O       1.69108317     0.68849788     0.89649720     0.00000000    -1.11203107    -1.07544220
O       1.69108317     2.84433899     3.70363078     0.00000000     1.11203107     1.07544220
O       0.00000000     1.07789585     3.19656222     0.00000000     1.11170557    -1.07489790
O       0.00000000     2.45494102     1.40356581     0.00000000    -1.11170557     1.07489790
