# total energy = -19073.34667078 eV

CRYSTAL
PRIMVEC
        5.17600016     0.00000000     0.00000000
        0.00000000     5.50899976     0.00000000
        0.00000000     0.00000000     9.26300011
PRIMCOORD
22 1
Ti      1.90495301     3.55417799     3.37471499     0.91462787    -0.30418064    -0.44093176
Ti      3.53084598     2.09408397     5.92277901     1.21029378     0.47531102    -2.29626440
Ti      4.44941900     2.23017302     1.37460501    -0.09895486     0.61525673    -1.68957484
Ti      0.56752000     3.10865800     7.97810901     1.07073322    -0.15991933     0.59528131
Ti      1.82358200     0.52802999     1.29649098    -0.36217935     1.83905190    -2.09689996
Ti      3.18878898     5.10081100     8.15631199     0.11151290     0.40275729     0.74338719
Ti      0.84019102     5.50869300     6.03107101    -1.98153040     0.88090784    -1.35802840
Ti      4.44622102     5.04120898     3.26812302    -0.30861863    -1.73608175     3.08326703
O       3.66180698     3.26339202     4.26113302    -0.88737828     0.25995097     1.64002735
O       0.95374801     1.79795099     0.09480898    -0.90876498     1.03640821     0.21960057
O       4.37490200     3.72050300     8.96972600    -1.61591940     0.03840304     0.41741181
O       3.49489998     0.90436900     0.27334598     0.22398559    -0.64424593    -1.84760982
O       1.73270899     4.70758098     9.22871900    -0.09399417    -0.90206751    -1.13169025
O       4.41490003     0.71886898     4.85683198    -1.05249690    -0.01043148     0.36698500
O       1.18899598     5.09470202     4.20108998    -0.06183994    -1.17046198     1.48296375
O       0.26067203     3.74067000     2.24917699     0.01642473    -2.04644615     0.43938138
O       4.96785199     1.64089801     7.04243600    -0.12538272    -0.14887567    -0.16300183
O       2.66231699     2.18673503     2.09940099     0.24013393     0.12523822     0.73516326
O       1.81689701     4.07027599     6.69443200     0.32671997    -2.09759647     0.96295871
O       0.06135202     0.64544400     2.15352000     0.88585850     2.80109092    -0.92797678
O       2.24880302     0.95570999     6.69390298     1.54663662     1.17259548     0.91979373
O       2.79543502     4.89900302     2.38577801     0.95013327    -0.42666444     0.34575668
