# total energy = -4983.53193741 eV

CRYSTAL
PRIMVEC
        3.68478131     0.00000000     0.00000000
        0.00000000     2.77983352     0.00000000
        0.00000000    -0.00007349     4.87369396
PRIMCOORD
6 1
Ti      1.84239061     1.38987987     2.43684703     0.00000000     0.00000000     0.00000000
Ti      0.00000000     0.00000000     0.00000000     0.00000000     0.00000000     0.00000000
O       1.84239061     0.54173423     0.94981119    -0.00000000    -2.75416544    -2.30292201
O       1.84239061     2.23802550     3.92388286    -0.00000000     2.75416544     2.30292201
O       0.00000000     0.84811642     3.38665923     0.00000000     2.75367436    -2.29960760
O       0.00000000     1.93164332     1.48703483     0.00000000    -2.75367436     2.29960760
