# total energy = -4985.10829971 eV

CRYSTAL
PRIMVEC
        3.98665467     0.00000000     0.00000000
        0.00000000     3.74789384     0.00000000
        0.00000000    -0.00007381     5.33033784
PRIMCOORD
6 1
Ti      1.99332716     1.87391013     2.66516903     0.00000000     0.00000000     0.00000000
Ti      0.00000000     0.00000000     0.00000000     0.00000000     0.00000000     0.00000000
O       1.99332716     0.73039497     1.03880440     0.00000000     0.33248927     1.24878501
O       1.99332716     3.01742528     4.29153373     0.00000000    -0.33248927    -1.24878501
O       0.00000000     1.14348568     3.70397447     0.00000000    -0.33147060     1.24814481
O       0.00000000     2.60433457     1.62636360     0.00000000     0.33147060    -1.24814481
