# total energy = -19073.17066516 eV

CRYSTAL
PRIMVEC
        7.60600008     0.00000000     0.00000000
        0.00000000     7.60600008     0.00000000
       -1.89786986    -1.89786986     4.85670466
PRIMCOORD
22 1
Ti      3.74645502     6.63030101     1.02814800     2.08521017     1.87085722    -0.76931857
Ti      3.77446098     3.00890100     1.16554602     1.85011407    -3.53444360     2.59085379
Ti      0.14543098     6.62191402     1.12074402    -1.41480095     0.65061173     0.36018700
Ti     -0.06404601     2.89989202     1.29731100    -1.76345449    -0.06883668    -1.48524020
Ti      5.67935123     2.86372820     3.74576180    -2.64305621    -0.92209332    -1.86896669
Ti     -1.39627677    -0.91687478     3.74387380    -1.86299813    -0.03427487    -0.74901431
Ti      1.66647420     2.48247621     3.58928583     3.61531794     1.29793424    -1.51338376
Ti      1.55795625    -0.81647276     3.71404683     0.13517760    -2.55138040     0.22498421
O       3.97509102     4.70316102     0.51953501    -0.68015705     1.57129197     0.19775030
O       4.06968701     1.06310699     0.69696300    -1.89813690    -0.24200003     0.87673905
O       7.14545802     4.80899600     0.75907503     1.41440371    -0.60404440     1.17962797
O      -0.21742300     0.84481698     0.67161801     0.77277234     0.06264007     1.99574938
O       5.70873121     4.68699524     4.10461282     1.55427640     1.14316251    -1.48753208
O       5.80829125     0.84739820     4.26387279     0.17889305     1.00816823    -0.54437756
O       1.88237725     4.93159224     4.04958383    -0.58107467    -1.15776253    -0.10799871
O       2.39286623     0.72932823     3.78193683    -0.26062074     3.34993115    -0.22706320
O       3.90528821     2.89625922     3.08100579    -0.80841967    -0.36492812     1.27399392
O      -0.12509279     2.40989024     3.22179684     1.22512340     0.44888855     0.17035005
O       5.42904701     6.71130598     2.00026000     0.40309436    -0.39435466     0.51749230
O       5.64163899     2.98646399     1.68072198     2.43973895    -0.16836155    -0.39806400
O       1.99665001     6.67625100     1.69048800    -0.77488887    -0.46069841     0.28310710
O       2.00138900     3.24306002     1.78462699    -2.98651484    -0.90030682    -0.51987648
