# total energy = -19518.96597042 eV

CRYSTAL
PRIMVEC
        7.60600008     0.00000000     0.00000000
        0.00000000     7.60600008     0.00000000
       -1.89786986    -1.89786986     4.85670466
PRIMCOORD
23 1
Ti      3.75796399     6.66260998     1.29812101     1.07453769    -0.64612721    -0.80612599
Ti      3.78041100     2.85934699     1.14900002     0.20743514     0.84081429     0.25477842
Ti     -0.01275899     6.58865200     1.22001699    -0.84675329    -0.29645550    -0.23681669
Ti     -0.03820400     2.80743200     1.12374297    -0.02075704     0.70389503     0.46563518
Ti      5.58752924     2.93555322     3.61750183     0.22844697    -1.16667423     1.38087934
Ti      5.74723123    -0.98913378     3.69008880    -0.44963314     0.85541200    -0.93478944
Ti      2.05585721     2.91405725     3.62586081    -0.65924035     0.24982030     1.38061709
Ti      1.85003722    -0.95571078     3.60116279     0.58002540    -0.18903760     0.93589193
O       3.99568798     4.73490801     0.84629503    -0.79694355    -0.14613693    -0.21272416
O       3.70509198     0.96251500     0.77282702    -0.05515687     0.26980550     0.19979099
O      -0.27022299     4.67383000     0.71518702     0.76146359     1.49911594     0.99764856
O       0.12925599     0.93595998     0.80517102    -0.22729075    -1.02485213    -0.07731876
O       5.87620025     4.72436823     3.98920979     0.32612425     0.27594658     0.56942911
O       5.74227025     0.96589623     4.12173583     0.26033458    -0.67695474    -1.45782657
O       1.86456821     4.75543125     4.10820281    -0.56386704     0.33953127    -0.04183598
O       1.97020220     1.05789221     3.91902083    -0.63422762    -1.52222939     1.07553090
O       3.80308725     2.94592324     3.23399083     0.39969588     0.05002572    -0.81208143
O       3.80785323    -1.04194778     3.22097883     0.18811458     0.41923087     0.59915031
O      -0.00368778    -0.82466379     3.15705581     0.01604755    -0.16668185     0.65737244
O       5.72929599     6.57758998     1.64042900    -0.27257663     0.77795183    -0.00968098
O       5.69830102     2.73511098     1.76853598     0.94851322    -0.39250244    -1.67870344
O       1.87105000     6.41753598     1.69837502     0.22521664     0.16448639    -0.86379482
O       1.85179498     3.01484001     1.76044301    -0.68950945    -0.21838367    -1.38502602
