# total energy = -19515.84954719 eV

CRYSTAL
PRIMVEC
        5.17600016     0.00000000     0.00000000
        0.00000000     5.50899976     0.00000000
        0.00000000     0.00000000     9.26300011
PRIMCOORD
23 1
Ti      1.79429099     3.22366499     3.42384698    -0.50392921     1.12659380     1.14243772
Ti      3.28471098     2.29716903     5.82070702     1.40501995     1.78955814    -2.09579567
Ti      4.33053700     1.95792598     1.48906800     1.53442208     0.69963420    -1.82906316
Ti      0.90262197     3.11139400     7.72287401     0.13869564     1.61838406     3.45898478
Ti      2.00607000     0.24395600     1.36216802     1.20632066     0.12005771    -3.01611313
Ti      3.36533902     5.30854001     7.76360002     0.09929218    -1.26790606     3.71700717
Ti      0.67322300     0.61378401     6.03284798    -0.93590529    -1.98346541    -2.83935615
Ti      4.44477600     5.05561202     3.28394601     0.94276809    -1.31689613     2.38906532
O       1.64556598     2.05283699     5.06140101    -1.72944161     0.40821523    -2.09715912
O       3.60424498     3.65786900     4.48777101    -1.21001739    -1.16414735     0.39726387
O       0.26827202     2.75745698     0.17334201     0.81376988    -0.29314392    -2.20330819
O       3.58346001     0.88493899     0.07722199     0.12092957     0.80241460     0.61275607
O       1.92959902     4.83757400     9.06361300    -0.24334318    -1.03380471    -1.27553581
O       4.13360501     0.80417299     5.04838002     0.80671091    -0.82108621    -1.73132366
O       0.89551100     4.75163303     4.40042798     0.28262631     0.95913496     0.57763531
O       0.09056302     3.47985399     2.47645200     0.73816219    -1.64885832     0.59895259
O       4.86874101     1.92826200     6.98165798     0.05923233    -0.20206024     0.59573716
O       2.57776002     1.87753898     2.23684001    -0.27686858     0.74491700     0.92558745
O       2.76876602     3.59558299     7.11093498    -1.30826056    -0.14457138     0.63743559
O       0.26872600     0.42578401     1.74615200    -1.82492008     0.74975916     1.71202650
O       5.11187801     4.67226999     7.27912698     0.68557848     0.53710494    -0.78246797
O       2.30450803     0.94932801     6.97397798    -1.21118416     0.89324374     0.09617626
O       2.83421900     4.48964398     2.28536202     0.41034127    -0.57307751     1.00905706
