# total energy = -4988.60384014 eV

CRYSTAL
PRIMVEC
        4.10868332     0.00000000     0.00000000
        0.20529706     4.10355111     0.00000000
       -2.15702667    -2.05181025     5.24523418
PRIMCOORD
6 1
Ti      0.15380682     3.07781916     1.31130840    -0.00025608     0.00025608     0.00000000
Ti      2.00314637    -1.02607880     3.93392549     0.00025608    -0.00025608     0.00000000
O       0.05136749     1.02588107     0.85440576    -0.00037821    -0.00166608    -0.89972138
O       2.10558553     1.02585918     4.39082819     0.00037821     0.00166608     0.89972138
O      -0.05134722    -1.02586179     3.47702285    -0.00166608    -0.00037821    -0.89972138
O       2.20830024     3.07760198     1.76821116     0.00166608     0.00037821     0.89972138
