# total energy = -19937.64493471 eV

CRYSTAL
PRIMVEC
        6.92515697     0.00000000     0.00000000
        0.00002725     4.91364073     0.00000000
        0.00000000     0.00000000    10.75912176
PRIMCOORD
24 1
Ti      2.51005258     2.91181893     3.99155743     0.49230705    -0.10179233     0.73938475
Ti      4.41513176     2.00182180     6.76756445    -0.49230705     0.10179233    -0.73938475
Ti      5.97251169     2.00182351     1.38796049     0.49279041     0.10173113    -0.73943180
Ti      0.95267266     2.91181745     9.37116144    -0.49279041    -0.10173113     0.73943180
Ti      2.51003895     0.45499868     1.38800362     0.49248857    -0.10139766    -0.74008641
Ti      4.41514539     4.45864222     9.37111831    -0.49248857     0.10139766     0.74008641
Ti      0.95265903     0.45499685     6.76752125    -0.49287809    -0.10136681    -0.73980487
Ti      5.97252531     4.45864405     3.99160056     0.49287809     0.10136681     0.73980487
O       2.19186556     1.73017645     5.49029750     0.95870379     0.89308947    -0.82661974
O       4.73331878     3.18346433     5.26882438    -0.95870379    -0.89308947     0.82661974
O       1.27077275     1.73019625     0.11077119    -0.95802013     0.89278274    -0.82713576
O       5.65441171     3.18344453    10.64835033     0.95802013    -0.89278274     0.82713576
O       4.73330522     0.72664391     0.11073626    -0.95834821    -0.89258990    -0.82651381
O       2.19187913     4.18699682    10.64838526     0.95834821     0.89258990     0.82651381
O       5.65439808     0.72662417     5.49033237     0.95792166    -0.89271203    -0.82733502
O       1.27078620     4.18701668     5.26878945    -0.95792166     0.89271203     0.82733502
O       0.25162368     2.98875483     2.90630722    -1.51309143     0.42258744     0.47674235
O       6.67356066     1.92488596     7.85281465     1.51309143    -0.42258744    -0.47674235
O       3.71420991     1.92484014     2.47328794    -1.51281941    -0.42247200    -0.47614509
O       3.21097443     2.98880065     8.28583376     1.51281941     0.42247200     0.47614509
O       0.25161006     0.53193441     2.47325354    -1.51275976     0.42258179    -0.47639757
O       6.67357428     4.38170632     8.28586810     1.51275976    -0.42258179     0.47639757
O       3.21096086     0.53198022     7.85284894     1.51277056     0.42224369    -0.47697684
O       3.71422348     4.38166056     2.90627288    -1.51277056    -0.42224369     0.47697684
