# total energy = -19073.42259370 eV

CRYSTAL
PRIMVEC
        5.17600016     0.00000000     0.00000000
        0.00000000     5.50899976     0.00000000
        0.00000000     0.00000000     9.26300011
PRIMCOORD
22 1
Ti      2.15336701     3.48066802     3.33162202    -0.32533749    -0.88800717    -0.00222503
Ti      3.51343901     2.02283698     5.85056902    -0.88939634     2.22201811    -2.84252606
Ti      4.53191498     2.32081700     1.24467998    -0.53349510     0.60197569    -1.53464679
Ti      0.42720199     2.88634598     7.91034902     0.59741995     2.29908721     2.73430623
Ti      1.93301702     0.44230899     1.40350798     0.75517442     1.42342597    -1.39764140
Ti      2.84429798     5.20807502     7.97506200     1.25196547     0.21164738     2.43446561
Ti      0.66975599     0.21711502     6.06944202    -0.49236130    -0.81118438    -1.57095618
Ti      4.72477702     4.95881698     3.40447300    -0.32792993    -0.79211038    -0.27405244
O       3.69371298     3.54659800     4.58083398     0.31928357    -0.89130949     0.31795996
O       1.06952300     2.04915799     0.12061601    -0.96292066    -0.26366313    -0.23194959
O       4.15644298     3.53688601     8.91696798     0.36681840     0.22217939    -0.54477145
O       3.45286700     0.92090097     0.05806000     0.27554549    -0.58870314     0.28582039
O       1.69824902     4.76786099     0.08413098    -0.84691450    -0.51577146    -1.34556034
O       4.22688398     0.69986702     4.77546299     0.75804171     0.07914913     0.59803367
O       1.33115903     4.82617198     4.32821598    -1.87930613     1.00945867     1.15832226
O       0.47879100     3.72022100     2.22548699    -0.85182813    -0.63360876     0.61229225
O       4.72638201     1.53395800     7.12495801     0.64986353    -2.08296457    -0.48529924
O       2.80919199     2.09975300     2.16405200     0.67891110    -0.62413989     0.59854635
O       1.41881702     4.14307998     6.85866099     0.77771066     0.23205809     0.05242533
O       0.25237199     0.97630398     2.17971602    -0.18391519    -1.40242545     1.29642706
O       2.14856399     1.23319599     6.85239702    -0.76469881    -0.76342046     0.41806307
O       3.03395399     4.65072998     2.30751598     1.62736878     1.95630890    -0.27703390
