# total energy = -19961.50997400 eV

CRYSTAL
PRIMVEC
        7.60600008     0.00000000     0.00000000
        0.00000000     7.60600008     0.00000000
       -1.89786986    -1.89786986     4.85670466
PRIMCOORD
24 1
Ti      3.81369598     6.57056298     1.20110202    -0.61850301     0.60736524     0.89076802
Ti      3.78694697     2.84886398     1.22183900     0.37761883    -0.04621405    -0.05209803
Ti     -0.01004400     6.68424502     1.23108600     0.78568725     0.43867073    -0.78800664
Ti     -0.03113801     2.90812501     1.20278099    -0.05397750    -0.94481186     0.30457402
Ti      5.70068824     2.86703022     3.66974480     0.57692774     0.16944347    -0.19534941
Ti      5.74207223    -0.94381176     3.62409283    -0.51779646    -0.25553844     0.50872252
Ti      1.91960921     2.85416422     3.64233283    -0.43965006    -0.39991776    -0.60176203
Ti      1.89581824    -0.99107676     3.70996380     0.29571400     0.35905212    -1.96724175
O       3.68606499     4.77282001     0.71700702     0.47759853    -0.38613022     1.11595226
O       3.73776799     0.90415098     0.67490102     0.16963708     0.06791160     2.16500619
O       0.02573400     4.78104200     0.79248998    -0.04393117    -0.65023172    -0.34720704
O      -0.02860002     0.98185399     0.84180601     0.32711181    -0.31861328    -0.95250949
O       5.73585022     4.71162421     3.91962981     0.14969945     0.91257510     1.00741644
O       5.72900123     0.89527123     3.96852383    -0.28065067     0.62056632     0.94127762
O       1.86073723     4.70734623     4.04541180    -0.00344477     0.25293751    -0.14138039
O       1.83224622     0.93443421     4.16711183     0.49866024     0.30489567    -1.15188010
O       3.84375420     2.97006722     3.22435980    -0.62346369    -0.80551355     0.11820625
O       3.83342821    -1.00142778     3.24890881    -0.84830418     0.04729006    -0.74071787
O      -0.07595577     2.69641924     3.23175384     1.87139073     0.56655513    -0.66004896
O      -0.00873677    -0.97721480     3.14842382     0.37683542    -0.03844649     0.83387437
O       5.73805398     6.65185101     1.57476900    -1.59756763    -0.07983664     0.12054930
O       5.76560501     2.90353900     1.57753602    -1.31062521     0.02626409    -0.14939349
O       1.83787000     6.68158400     1.60799900     1.67937296    -0.03977987     0.17409383
O       1.98651102     2.94444297     1.70028699    -1.24833970    -0.40849317    -0.43284538
