# total energy = -19906.06215613 eV

CRYSTAL
PRIMVEC
        7.55918647     0.00000000     0.00000000
        0.00003194     5.94649682     0.00000000
        0.00000000     0.00000000    12.03538935
PRIMCOORD
24 1
Ti      2.73986047     3.52388856     4.46504361     0.50718860    -0.84388445     1.26532030
Ti      4.81935800     2.42260847     7.57034581    -0.50718860     0.84388445    -1.26532030
Ti      6.51932315     2.42261053     1.55260301     0.50663478     0.84372453    -1.26570339
Ti      1.03989532     3.52388676    10.48278654    -0.50663478    -0.84372453     1.26570339
Ti      2.73984463     0.55064028     1.55265127     0.50718860    -0.84388445    -1.26532030
Ti      4.81937384     5.39585694    10.48273828    -0.50718860     0.84388445     1.26532030
Ti      1.03987949     0.55063801     7.57029755    -0.50663478    -0.84372453    -1.26570339
Ti      6.51933898     5.39585921     4.46509186     0.50663478     0.84372453     1.26570339
O       2.39254153     2.09386266     6.14156706     0.77586281     1.48274134    -1.28662755
O       5.16667701     3.85263436     5.89382235    -0.77586281    -1.48274134     1.28662755
O       1.38711846     2.09388665     0.12391110    -0.77638037     1.48348182    -1.28734000
O       6.17210014     3.85261044    11.91147798     0.77638037    -1.48348182     1.28734000
O       5.16666117     0.87938589     0.12387205    -0.77586281    -1.48274134    -1.28662755
O       2.39255736     5.06711113    11.91151702     0.77586281     1.48274134     1.28662755
O       6.17208431     0.87936197     6.14160611     0.77638037    -1.48348182    -1.28734000
O       1.38713416     5.06713512     5.89378330    -0.77638037     1.48348182     1.28734000
O       0.27466217     3.61699645     3.25105892    -1.40917640     0.30709165     0.00354195
O       7.28455637     2.32950057     8.78433049     1.40917640    -0.30709165    -0.00354195
O       4.05426355     2.32944511     2.76667406    -1.40915120    -0.30692633    -0.00364660
O       3.50495499     3.61705198     9.26871515     1.40915120     0.30692633     0.00364660
O       0.27464633     0.64374804     2.76663562    -1.40917640     0.30709165    -0.00354195
O       7.28457220     5.30274905     9.26875359     1.40917640    -0.30709165     0.00354195
O       3.50493916     0.64380350     8.78436887     1.40915120     0.30692633    -0.00364660
O       4.05427938     5.30269352     3.25102048    -1.40915120    -0.30692633     0.00364660
