# total energy = -19891.11371813 eV

CRYSTAL
PRIMVEC
        8.61762792     0.00000000     0.00000000
        0.00002679     3.05725404     0.00000000
        0.00000000     0.00000000    13.70991918
PRIMCOORD
24 1
Ti      3.12349131     1.81172581     5.08628235    -0.00130432     0.23221981     1.93138359
Ti      5.49416305     1.24552794     8.62363724     0.00130432    -0.23221981    -1.93138359
Ti      7.43215828     1.24552892     1.76862267    -0.01165430    -0.23246766    -1.93148360
Ti      1.18549614     1.81172494    11.94129703     0.01165430     0.23246766     1.93148360
Ti      3.12347827     0.28309885     1.76867765    -0.00172521     0.23244504    -1.93102800
Ti      5.49417615     2.77415501    11.94124205     0.00172521    -0.23244504     1.93102800
Ti      1.18548304     0.28309780     8.62358226     0.01114651     0.23296646    -1.93096013
Ti      7.43217138     2.77415606     5.08633733    -0.01114651    -0.23296646     1.93096013
O       2.72754295     1.07651103     6.99606698     2.62021118     0.25819722    -1.15895732
O       5.89011147     1.98074278     6.71385261    -2.62021118    -0.25819722     1.15895732
O       1.58134000     1.07652344     0.14115133    -2.61790464     0.25814734    -1.15865830
O       7.03631448     1.98073037    13.56876785     2.61790464    -0.25814734     1.15865830
O       5.89009837     0.45211570     0.14110680    -2.62048603    -0.25822653    -1.16008038
O       2.72755605     2.60513805    13.56881237     2.62048603     0.25822653     1.16008038
O       7.03630137     0.45210335     6.99611144     2.61835458    -0.25818693    -1.15862770
O       1.58135293     2.60515046     6.71380814    -2.61835458     0.25818693     1.15862770
O       0.31311444     1.85959521     3.70339127    -1.00573520     0.42061798     1.91357715
O       8.30453998     1.19765854    10.00652826     1.00573520    -0.42061798    -1.91357715
O       4.62193979     1.19763020     3.15161208    -1.00611315    -0.42033696    -1.91602561
O       3.99571462     1.85962361    10.55830727     1.00611315     0.42033696     1.91602561
O       0.31310134     0.33096819     3.15156832    -1.00555393     0.42038761    -1.91447729
O       8.30455308     2.72628561    10.55835103     1.00555393    -0.42038761     1.91447729
O       3.99570158     0.33099653    10.00657196     1.00598717     0.42042797    -1.91449555
O       4.62195284     2.72625722     3.70334751    -1.00598717    -0.42042797     1.91449555
