# total energy = -39031.58771922 eV

CRYSTAL
PRIMVEC
        7.60600008     0.00000000     0.00000000
        0.00000000     7.60600008     0.00000000
       -3.79573973    -3.79573973     9.71340985
PRIMCOORD
46 1
Ti      2.04793146     4.49343845     6.04066261     1.06539921     2.07990084     0.86864418
Ti      3.73912099     6.93172799     1.35446097    -0.57923248     0.74275238     0.30452774
Ti      2.10504943     0.73102244     6.00150561     0.42975851    -1.75512437    -0.08828914
Ti      3.68351298     3.06151402     1.18252700     0.79825532    -1.58534280     0.49314600
Ti     -1.79210755     4.54523442     5.96968465    -0.32824592    -1.42242710     0.80814533
Ti     -0.02600499     6.87471200     1.17281898    -0.76064033     0.24884020     2.55971592
Ti     -1.66120455     0.71980944     5.94381963    -1.86057692    -0.00799305    -1.09332192
Ti     -0.20267600     3.18309699     1.20454099     0.11863306    -0.78494189    -0.80416321
Ti      4.05947945     1.28693843     8.56345064    -1.26405454    -2.49979557    -0.77928032
Ti      5.65283098     2.52369499     3.67733600    -0.79402817     0.88843166    -1.42136472
Ti      3.85092646    -2.67570153     8.56451461    -0.30230502     2.34234861    -0.87924125
Ti      5.52439898    -1.28780703     3.72105001    -1.55214881    -0.16373100    -1.94212515
Ti      0.12046847     1.34858944     8.24663360     1.26170558    -0.69745956     1.75748542
Ti      1.85512600     2.74081800     3.36816001    -0.07506724    -2.05613073     2.45154675
Ti     -0.00223355    -2.62995754     8.52123563     0.54761664    -1.21163461    -0.73059929
Ti      1.58333701    -1.25571999     3.65487698     1.37989307     0.82228075     0.58556511
O       1.94943247    -1.13206355     6.03670865     0.00628789     0.50448817    -2.62677109
O       3.30960502     1.11063298     1.21065902     1.23165632    -0.36605426    -2.45177763
O      -1.72369154     2.53452344     5.55304964     0.27354568     1.40081903     0.73564919
O      -0.19360098     5.00324400     0.76226898    -0.47325851    -0.92257335    -0.59442050
O      -1.81101553    -1.25819956     5.54668163     0.72244966     1.36281656     1.43852761
O       0.04449502     1.16128302     0.89249802    -0.36270180     0.21785377    -0.42495209
O       4.02439045     3.14956144     9.09719665    -0.29472901    -1.43367079    -2.04100724
O       5.20101601     4.41293101     4.09818199     1.16477676     1.55823693     0.01349958
O       3.90646245    -0.73928157     8.88478062    -0.12828755    -0.48939450     0.49642698
O       5.49863302     0.71370099     3.93307599     1.00981580    -0.56058786     1.19075673
O       0.37619147     3.00792445     9.13824461    -1.03777141     0.10007457     0.00373453
O       1.85806102     4.43716399     4.10995502    -0.21222690     1.62241169     0.68077798
O      -0.02161557    -0.84871956     8.81059563     0.45157073     0.69144857     0.91754247
O       1.67739398     0.96488000     4.01860199    -0.33585973    -0.94170185     1.30956643
O       1.96816344     1.04128144     7.94683061     0.79402611     0.83361340     0.15634987
O       3.65876903     2.58338502     3.21571802     1.88283908     0.36311035     0.01334480
O       2.01030844    -2.75753254     7.96602461     1.72392017    -0.27056423     2.16284338
O       3.38191402    -0.89391600     3.38935102     2.19451912    -0.98629714    -0.73307732
O      -1.78008353     1.15748146     8.67158060     0.69385101     0.29919707    -1.69347649
O      -0.07899600     2.86619697     3.03116698    -0.38807294    -0.35360858     1.63412307
O      -1.81550454    -2.85527058     8.02103063     0.85332452     0.23120885    -0.02699556
O      -0.31703898     6.22578098     3.33169298     1.99831740     0.23343543    -0.09069004
O       4.03508644     4.46018643     6.40574861    -1.62775573    -0.32299650     0.96747922
O       5.60298900     6.79214299     1.73062202    -1.09950131    -0.09315984    -0.08621401
O       4.00664544     0.72915048     6.31319964     0.50605628     0.90739278     1.38088268
O       5.62638101     3.08116301     1.79348097    -1.58966765     0.25727908    -2.26255619
O       0.31050047     4.49892845     6.51867863    -3.70746117    -0.70152319    -0.09610093
O       1.72581899     6.35179100     1.65241100     0.12920570     0.82830356     0.60273751
O       0.16613546     1.03282847     6.30760163    -1.30329705    -0.41088532     0.47686474
O       1.93453201     3.24477800     1.66359299    -1.16053341     1.50135382    -3.14345837
