# total energy = -19921.56621750 eV

CRYSTAL
PRIMVEC
        6.28112680     0.00000000     0.00000000
        2.57119034     6.17077372     0.00000000
        0.00000000     0.00000000    11.48282950
PRIMCOORD
24 1
Ti      3.80029142     3.65679491     4.26004784     0.07240023    -2.42581822     0.67033724
Ti      5.05202581     2.51397898     7.22278178    -0.07240023     2.42581822    -0.67033724
Ti      6.46457240     2.51398108     1.48132106    -0.67532441    -1.08006890     0.28706686
Ti      2.38774488     3.65679306    10.00150863     0.67532441     1.08006890    -0.28706686
Ti      2.51469638     0.57140802     1.48136710     0.07240023    -2.42581822    -0.67033724
Ti      6.33762089     5.59936605    10.00146259    -0.07240023     2.42581822     0.67033724
Ti      1.10214969     0.57140575     7.22273569     0.67532441     1.08006890     0.28706686
Ti      7.75016758     5.59936832     4.26009388    -0.67532441    -1.08006890    -0.28706686
O       2.89337610     2.17283439     5.85960002     1.82433232     2.13287639    -0.86208478
O       5.95894107     3.99793951     5.62322961    -1.82433232    -2.13287639     0.86208478
O       2.05795407     2.17285932     0.11822217    -0.15116318    -0.78647915     1.54893982
O       6.79436325     3.99791468    11.36460708     0.15116318     0.78647915    -1.54893982
O       4.67334600     0.91255250     0.11818489    -1.82433232    -2.13287639    -0.86208478
O       4.17897123     5.25822139    11.36464436     1.82433232     2.13287639     0.86208478
O       5.50876810     0.91252762     5.85963724     0.15116318     0.78647915     1.54893982
O       3.34354902     5.25824636     5.62319233    -0.15116318    -0.78647915    -1.54893982
O       1.79215161     3.75341456     3.10179874     0.62516679     2.62376830     2.48857399
O       7.06016556     2.41735934     8.38103089    -0.62516679    -2.62376830    -2.48857399
O       4.37600641     2.41730192     2.63965260     0.78396693     1.98513432     1.37969046
O       4.47631076     3.75347199     8.84317684    -0.78396693    -1.98513432    -1.37969046
O       0.50655653     0.66802749     2.63961588     0.62516679     2.62376830    -2.48857399
O       8.34576071     5.50274640     8.84321349    -0.62516679    -2.62376830     2.48857399
O       3.19071569     0.66808498     8.38106747    -0.78396693    -1.98513432     1.37969046
O       5.66160148     5.50268893     3.10176209     0.78396693     1.98513432    -1.37969046
