# total energy = -19071.19890576 eV

CRYSTAL
PRIMVEC
        5.93400000     0.00000000     0.00000000
        0.00000000     9.29699974     0.00000000
        0.00000000     0.00000000     4.64899994
PRIMCOORD
22 1
Ti      4.40780402     6.94386700     2.44190303     1.10719508    -0.53042289    -0.37905839
Ti      4.28626698     2.28283600     2.41579898    -0.94542095    -0.33372469    -0.51150214
Ti      1.57898400     6.97583899     2.30959601    -0.64612129     0.82894762     1.57626706
Ti      1.51440998     2.63510802     1.92472402     0.08069025    -1.05264036     2.43165746
Ti      2.92162300     4.42709899     4.43947798     0.59266264     1.45557043     0.70954555
Ti      3.02818702     0.16643000     0.05417299     0.19845633    -0.39516868    -0.67685704
Ti      5.78847700     4.54049802     0.14116502     0.04158838     2.14523260     0.20791593
Ti      0.13186901     9.18104399     0.04805400    -1.17479558    -0.77309553     0.88272149
O       4.28895801     5.43850700     1.03502302     1.72672498     0.96131526    -0.52126642
O       4.51242300     0.88951600     0.83611598     0.10686434     2.92595299     1.45145615
O       1.70488199     0.97818700     1.07436402    -2.42894545    -0.57116332    -2.32321085
O       4.41969898     8.51651701     4.00888000     1.67031059    -2.58099490    -2.96874953
O       4.58384600     3.85721600     3.66959800    -0.99782262    -2.74162360    -0.93229752
O       1.51699703     8.16836601     3.87751100     0.15325272     0.96388893     0.10133518
O       1.52984497     3.86401301     3.49285100    -1.83506848    -1.29320315     0.65030319
O       2.98193100     5.88033302     3.22189701    -0.48454283     2.18656078    -0.66694235
O       2.78988602     1.35965702     2.99893701     0.94861298     0.22792864     2.66426653
O       0.03311501     5.98525003     3.29512699     0.49564434     0.92987811    -0.32112088
O       3.17974402     8.11735200     1.69324702    -1.78472318    -1.57457553    -0.55534229
O       3.03886000     3.37159898     1.39874200     2.28187393    -0.30415519    -0.71676289
O       5.85487202     8.16903700     1.48245800     1.32169741    -2.31004397     1.57468788
O       5.77569800     2.91527499     1.46059001    -0.42813306     1.83553617    -1.67704637
