# total energy = -19071.12892036 eV

CRYSTAL
PRIMVEC
        5.17600016     0.00000000     0.00000000
        0.00000000     5.50899976     0.00000000
        0.00000000     0.00000000     9.26300011
PRIMCOORD
22 1
Ti      1.70526300     3.33470601     3.26422701     0.66016723     0.41761184    -0.28563553
Ti      3.81671499     2.30100498     6.08346501    -2.08513973     0.17572777    -1.39056906
Ti      4.23097997     2.05702098     1.21446798     1.73229940     1.56348867     0.67602143
Ti      1.01138102     3.23317600     8.21835701    -1.70966082    -2.67465765     0.48862600
Ti      1.66884100     0.47895298     1.29055600     1.33553406     0.44086259    -0.87368278
Ti      3.05405098     5.19214001     7.97078498     3.80836492    -1.54460262    -1.44037546
Ti      0.70880499     0.35260498     6.04919300    -0.27151656     0.36922521    -2.61660803
Ti      4.27022900     5.04964602     3.46262800     1.19113957    -1.83390172     0.63840078
O       3.25016100     3.29661800     4.35324902     0.65089223     0.07724882     2.35952899
O       1.07501898     2.22631097     0.59302201    -0.64453569    -0.70452752    -2.01956474
O       4.60806798     3.87485400     8.68639302    -1.55651429     0.00026688     0.88030594
O       3.36637002     0.84326501     0.07925001     0.14743688     0.54480256    -0.52689251
O       1.42260800     4.95743302     8.66035501    -0.18195524     2.83767182     1.40233006
O       4.50397500     1.02025802     4.67334400     0.42252239    -1.42225304     0.23127647
O       1.05062100     4.63379398     4.33007101    -2.19942196     1.27876460     1.89163972
O       5.02274000     3.39246999     2.41117100     0.87352851    -0.27082262     0.69043119
O       0.41914701     2.29322401     6.45657799     0.60964092     0.11209911     1.51833031
O       2.70068700     1.81616903     2.29757702    -0.07335540    -0.78500617     0.71521817
O       2.80060699     3.20945801     7.60304701    -0.49363579    -0.08318756    -2.37936711
O       5.11933501     0.46278900     1.90736198    -0.41470290     0.21700864     1.00302500
O       2.53176002     0.71200201     6.32448699     0.12102393    -0.20816379     1.13215639
O       2.79364302     4.58299202     2.37520198    -1.92211193     1.49234416    -2.09459496
