# total energy = -19939.43636813 eV

CRYSTAL
PRIMVEC
        6.85787235     0.00000000     0.00000000
        0.00002588     4.37930984     0.00000000
        0.00000000     0.00000000    10.47388442
PRIMCOORD
24 1
Ti      2.48566402     2.59517494     3.88573644     0.32510172     0.60664327     0.44573844
Ti      4.37223376     1.78413485     6.58814810    -0.32510172    -0.60664327    -0.44573844
Ti      5.91448220     1.78413632     1.35116399     0.32452708    -0.60709682    -0.44446265
Ti      0.94341563     2.59517363     9.12272061    -0.32452708     0.60709682     0.44446265
Ti      2.48565131     0.40552007     1.35120600     0.32510172     0.60664327    -0.44573844
Ti      4.37224647     3.97378982     9.12267865    -0.32510172    -0.60664327     0.44573844
Ti      0.94340286     0.40551849     6.58810609    -0.32452708     0.60709682    -0.44446265
Ti      5.91449492     3.97379141     3.88577839     0.32452708    -0.60709682     0.44446265
O       2.17056888     1.54202940     5.34474307     1.46111322     0.22851253    -0.12093240
O       4.68732895     2.83728033     5.12914146    -1.46111322    -0.22851253     0.12093240
O       1.25842537     1.54204708     0.10783452    -1.46142329     0.22837755    -0.12124221
O       5.59947252     2.83726270    10.36604968     1.46142329    -0.22837755     0.12124221
O       4.68731624     0.64762536     0.10780052    -1.46111322    -0.22851253    -0.12093240
O       2.17058160     3.73168437    10.36608368     1.46111322     0.22851253     0.12093240
O       5.59945975     0.64760773     5.34477701     1.46142329    -0.22837755    -0.12124221
O       1.25843797     3.73170206     5.12910747    -1.46142329     0.22837755     0.12124221
O       0.24917801     2.66374450     2.82925748    -1.12822774     0.49276779     1.07573145
O       6.60871982     1.71556523     7.64462700     1.12822774    -0.49276779    -1.07573145
O       3.67812208     1.71552452     2.40771805    -1.12682546    -0.49259527    -1.07652901
O       3.17977570     2.66378527     8.06616626     1.12682546     0.49259527     1.07652901
O       0.24916524     0.47408952     2.40768462    -1.12822774     0.49276779    -1.07573145
O       6.60873254     3.90522020     8.06619970     1.12822774    -0.49276779     1.07573145
O       3.17976298     0.47413029     7.64466037     1.12682546     0.49259527    -1.07652901
O       3.67813479     3.90517944     2.82922405    -1.12682546    -0.49259527     1.07652901
