# total energy = -19960.68010002 eV

CRYSTAL
PRIMVEC
        5.93400000     0.00000000     0.00000000
        0.00000000     9.29699974     0.00000000
        0.00000000     0.00000000     4.64899994
PRIMCOORD
24 1
Ti      4.45895001     7.10634600     2.45057799    -0.06566317    -1.78880584    -1.70109468
Ti      4.44453300     2.24812102     2.31313700    -0.20077598     1.03825864     1.13940767
Ti      1.47793999     6.93700002     2.42181900    -0.08562934    -0.39194657    -0.53752300
Ti      1.48824799     2.37726498     2.16033501     0.15175248     0.85398066     1.34029215
Ti      2.93835500     4.63490102     0.00525399     1.07862214    -0.59803933    -0.69374842
Ti      2.97455200     9.23801199     0.00008901    -0.87791430     0.33137778     0.11177695
Ti      0.00403498     4.72328098     0.05934300    -1.34959235    -0.86761754    -0.50573669
Ti      5.93190600     0.03752899     4.64722900     0.83281199     0.37705422    -0.01749816
O       4.43350801     5.52902499     0.84103098    -0.03441063     0.71119337     0.55807126
O       4.41530601     0.86120798     0.83729002     0.90264241     0.25495865    -0.15177330
O       1.43239503     5.55449101     0.90464999     0.68203088     0.29627835     0.49663113
O       1.56195698     1.03815602     0.84374201    -0.80004327    -1.85144796    -1.59723287
O       4.49243899     8.33331802     3.78222698    -0.07355492     1.01699329     0.69469253
O       4.42583701     3.66666102     3.84018803     0.16652707    -0.41288924    -1.29588455
O       1.46776502     8.23837102     3.80909997    -0.05836535     1.21203519     0.55383100
O       1.49226402     3.77612101     3.67001902    -0.04203575    -0.18876712     0.23435125
O       2.96840100     6.07344599     3.22687599    -0.12800525     0.16606427    -0.34536150
O       2.95534598     1.35108202     3.07570301     0.26236601    -0.24857743     0.80843587
O       5.91734801     6.06434901     3.22738500    -0.00703994    -0.00327713    -0.07957027
O       0.12869099     1.28722001     3.10113701    -1.03508821    -0.16349471     0.68895846
O       2.98326098     7.94910200     1.40876901    -0.28416794    -0.30910842     0.38221880
O       3.04195701     3.15498900     1.27052902    -0.32174797     0.02765480     1.25940856
O       5.86800398     7.85606798     1.48027800     0.75138229     0.97039640    -0.75938434
O       5.86072599     3.30208202     1.51517502     0.53589934    -0.43227536    -0.58326705
