# total energy = -4888.03402376 eV

CRYSTAL
PRIMVEC
        5.26640969     0.00000000     0.00000000
       -0.00000683     1.99760340     0.00000000
       -2.63323642    -0.99889652     5.81222332
PRIMCOORD
6 1
Ti     -0.00022502     1.49825908     1.45305558    -0.05626296    -0.04534065   101.67145059
Ti      2.63339151    -0.49955245     4.35916729     0.05626296     0.04534065  -101.67145059
O       0.00005591     0.49938495     0.94676361     0.05474241     0.04652027   -95.06974919
O       2.63311043     0.49932162     4.86545931    -0.05474241    -0.04652027    95.06974919
O      -0.00002283    -0.49943997     3.85287526    -0.00081581     0.00001208    -0.13077021
O       2.63318907     1.49814650     1.95934765     0.00081581    -0.00001208     0.13077021
