# total energy = -19960.73446390 eV

CRYSTAL
PRIMVEC
        5.93400000     0.00000000     0.00000000
        0.00000000     9.29699974     0.00000000
        0.00000000     0.00000000     4.64899994
PRIMCOORD
24 1
Ti      4.41077599     6.81769198     2.29364201     0.41973223     0.90952962     1.13224098
Ti      4.48040799     2.39578099     2.33514898    -0.03824826    -2.12832913     0.43265614
Ti      1.48197798     6.98493999     2.24431300    -0.42313303    -0.01535566     0.56062540
Ti      1.50219102     2.46973098     2.31493700    -0.16288356    -1.84847242     1.00401539
Ti      2.95447199     4.64410902     4.64303998    -0.38283175    -0.90532947    -0.07575295
Ti      2.92865899     9.19818002     4.59179498     0.77809915     1.29876625    -0.69881581
Ti      5.92051302     4.68286401     0.04455900     0.44205867    -0.61172558    -0.68071036
Ti      0.02661000     9.21906702     0.12353500    -1.20344462     1.74023434    -0.90601261
O       4.46361698     5.59601698     0.89479100    -0.21153553     0.30776605    -0.14292639
O       4.49752603     1.02140898     0.96674699     0.06073308    -0.87697636    -0.75553000
O       1.45081600     5.55765099     0.89245002     0.18136980     0.50892229    -0.03046681
O       1.55635702     0.85588001     0.77996297    -0.25062403     0.62531720     1.06019093
O       4.52570800     8.39512502     3.77460201    -0.45527363    -0.34832264    -0.39617629
O       4.41290201     3.72228601     3.88510999     0.32303815     0.06221506    -0.53272326
O       1.47429602     8.39468199     3.65546500     0.33877536    -0.54238084     0.22903010
O       1.49049101     3.68567801     3.81612501    -0.25046231     0.77283353     0.32863879
O       2.91992302     5.93798799     3.20270698     0.56433704     1.24825022    -0.63109679
O       2.87426698     1.45057999     3.18180300     0.63591658     0.06031347    -0.15350109
O       0.07889303     6.02130202     3.15500699    -0.82752837    -0.01953988     0.37231413
O       0.09066701     1.48319599     3.20314498    -0.79133314     0.35662397    -0.38692623
O       3.00885200     7.84633398     1.39056499     0.01331395    -0.35119482     0.29901298
O       2.95540901     3.38861102     1.50379998     0.30190573     0.03688506    -0.26141264
O       5.91105800     7.84575500     1.39709700     0.18843905    -0.25340005     0.35553151
O       5.83905798     3.39294101     1.48122602     0.74957944    -0.02663047    -0.12220509
