# total energy = -19961.70084221 eV

CRYSTAL
PRIMVEC
        7.60600008     0.00000000     0.00000000
        0.00000000     7.60600008     0.00000000
       -1.89786986    -1.89786986     4.85670466
PRIMCOORD
24 1
Ti      3.86946799     6.69965598     1.15170999    -1.55783353     1.09777738     0.87987605
Ti      3.82765102     2.94319602     1.19661698    -0.03584942    -1.13125084    -0.12183331
Ti     -0.07382298     6.57811000     1.24817001     2.21958379     0.61358706    -0.71658754
Ti      0.02177998     2.81014599     1.25450998    -0.21741102    -0.80893955    -0.26813891
Ti      5.69825720     2.75710121     3.66314379    -0.30246752     0.08748516    -0.17425118
Ti      5.69302422    -1.02077778     3.65512183    -0.41679243     0.08700462     0.62099312
Ti      1.92707622     2.91703323     3.66100681     0.09392218    -0.32536011    -0.97361594
Ti      1.88344322    -0.86118380     3.65108283     0.24901889     0.06268815    -1.64410307
O       3.88237203     4.80481201     0.72517699    -0.13894504     0.30150747     0.67755793
O       3.81921398     0.98445902     0.65796502    -0.03896174    -0.14147012     1.85496986
O      -0.03666098     4.69164502     0.77817801    -0.17208734    -0.28614743     0.51577326
O      -0.06081400     0.91627501     0.80227801     0.05118066     0.36536392    -0.34382553
O       5.66804425     4.70915523     4.06741483    -0.17734628     0.05668693    -0.29939325
O       5.69293521     0.87584222     4.05443581    -0.04237385     0.30296682     0.51089381
O       1.94766423     4.85319124     4.02661283    -0.07710176    -1.91132435    -0.31498905
O       1.94621523     0.98856623     4.11254582    -0.32727096     0.91603914    -0.76083804
O       3.77800922     2.75539922     3.11428580    -0.45118661     0.39810333     1.59886886
O       3.74149620    -0.84852778     3.14437683     1.32439733    -0.40317406    -0.12122165
O      -0.06498175     2.72475525     3.28214680     1.30394137     0.53195244    -0.58687483
O      -0.02328978    -0.99180877     3.18415281    -0.53937548    -0.03757386     0.66721180
O       5.72961598     6.70438201     1.60568502    -1.55232108    -0.25133571     0.24896592
O       5.63610798     2.77168100     1.69731502     1.21413733     0.38407950    -0.67292840
O       1.84026802     6.73655202     1.61795801     0.63492362    -0.33652539    -0.52964076
O       1.91568499     2.80609599     1.63495699    -1.04378085     0.42785898    -0.04686969
