# total energy = -4957.22254290 eV

CRYSTAL
PRIMVEC
        5.31394895     0.00000000     0.00000000
       -0.00000734     2.55856785     0.00000000
       -2.65700425    -1.27935541     5.72483342
PRIMCOORD
6 1
Ti     -0.00022702     1.91901072     1.43120805    -0.01711121    -0.01879940    33.28103527
Ti      2.65716432    -0.63979845     4.29362466     0.01711121     0.01879940   -33.28103527
O       0.00005655     0.63962969     0.93252845     0.01613008     0.01839188   -26.28359981
O       2.65688059     0.63958248     4.79230432    -0.01613008    -0.01839188    26.28359981
O      -0.00002171    -0.63965878     3.79494505    -0.00176763    -0.00025145    -1.65495184
O       2.65695879     1.91887095     1.92988772     0.00176763     0.00025145     1.65495184
