# total energy = -19959.47507002 eV

CRYSTAL
PRIMVEC
        7.60600008     0.00000000     0.00000000
        0.00000000     7.60600008     0.00000000
       -1.89786986    -1.89786986     4.85670466
PRIMCOORD
24 1
Ti      3.90906299     6.69087698     1.21002998    -1.33699959    -0.87110473    -0.66748331
Ti      3.71581603     2.88933498     1.14823600     0.61651966     0.67505984     0.91212978
Ti      0.05277802     6.26262199     1.40412997     0.74411713     3.04290918    -0.02454993
Ti     -0.05189599     2.79050801     1.12215401     0.70864977    -1.46760577    -0.84706542
Ti      5.80582523     2.90877421     3.49334980    -1.60831278    -0.16053717     1.07999563
Ti      5.49147320    -1.08042077     3.66486081     1.30863106     0.14509743     1.50279133
Ti      1.85556521     3.04670722     3.58167282     1.69681559    -0.26860582     1.30440031
Ti      1.84843725    -0.76433478     3.66578480    -1.37239033    -0.92879182    -0.74496199
O       3.66700699     4.74442002     0.78237200     0.64574205     0.87841515    -0.29934800
O       3.94681698     0.92472100     0.73982202    -0.61592496     1.44995128     0.78360337
O       0.30885398     4.63614602     0.98119199    -0.33901550    -1.31125256    -1.79774788
O      -0.11669401     0.92921901     0.69337598     0.28076534     1.45476208     1.27835219
O       5.53797724     4.67035521     4.37397679    -0.01785683    -1.16107771    -2.87495411
O       5.78267722     0.95497120     4.00252479    -0.18683777     0.88625933    -0.08414941
O       2.08672222     4.81997124     4.13027680    -0.36008262    -1.07178275    -0.20469845
O       1.99491923     1.05375225     3.99066180    -0.83307347    -0.36780313    -0.08649246
O       3.85131721     2.82183022     3.05962883     0.83175321     0.10092329     1.07146136
O       3.61320824    -0.97624476     3.35418582     3.49035714     0.17126073    -1.33265366
O       0.06730224     3.14985323     3.09626779    -1.36922016    -0.80674922     0.99062019
O      -0.08378077    -1.19678378     3.31186180     1.07483233     0.51318493     0.66794688
O       5.76670400     6.47928297     1.69284199    -2.58351509     0.03220154     0.30841834
O       5.75353902     3.03877898     1.59515899    -0.05424695    -0.23480583    -0.21671451
O       1.92876302     6.63425698     1.55841901     0.10164809     0.75300492     1.06109338
O       1.96420800     3.03494202     1.71479798    -0.82235505    -1.45291319    -1.77999389
