# total energy = -19517.03268957 eV

CRYSTAL
PRIMVEC
        5.17600016     0.00000000     0.00000000
        0.00000000     5.50899976     0.00000000
        0.00000000     0.00000000     9.26300011
PRIMCOORD
23 1
Ti      1.90556701     3.26917799     3.41378001    -0.39598783    -0.31487772     2.83962020
Ti      3.38161398     2.23035299     5.88915498    -0.61537397     0.36922855    -2.96545852
Ti      4.29649598     2.08800098     1.53440399    -0.13285203     0.69656404    -1.03775110
Ti      0.84038200     3.33034601     7.85202200     0.13212261     0.54779301     0.85160830
Ti      1.87734202     0.29375698     1.28980800    -0.05518644     0.03708638    -1.10063131
Ti      3.39838403     5.12755599     7.91934498    -0.57438543     0.57186446     0.44647866
Ti      0.74556698     0.56531799     5.85141501     0.19144493    -0.06749148    -3.46033719
Ti      4.48933600     4.90570198     3.35112998     0.69836870    -0.24577313     3.47535655
O       1.58470002     1.99488599     4.82099202     0.92997787     0.32419952    -0.39479509
O       3.50122603     3.61945899     4.50242700     0.03046373    -0.67790425     0.20126912
O       4.84820602     3.02118399     0.05078101     0.86066553     0.49235230    -1.14044280
O       3.31805502     0.86573001     0.23429100     0.97291840     0.00547131    -1.50091339
O       1.78926899     4.71865401     8.86355098    -0.43500639    -0.26622883     2.07834224
O       4.32406702     0.69637001     4.78437798    -0.57100726     0.39075152    -0.51202227
O       1.05952001     4.72072902     4.40357801    -0.29360852     0.27759800     0.19836994
O       0.06793800     3.23482698     2.71368597     0.70087501     0.21868218    -0.95628952
O       5.05108300     2.06828097     6.72032797     0.39875845     0.21791187     1.32907237
O       2.67606999     1.74941501     2.32796598    -1.37846790     1.72210214     0.51260617
O       2.77350200     3.51050398     7.09178802    -0.94492961    -0.73841545     0.53839717
O       0.10061300     0.68574000     2.12524003     1.40427922    -1.10144378    -0.98425954
O       0.04480200     4.81826501     7.11704200    -1.23063327    -0.19078621     0.41346619
O       2.51300497     0.69874803     6.67838602     0.30474269    -0.50327203     1.45147646
O       2.83508400     4.76744299     2.36386901     0.00282153    -1.76541265    -0.28316264
