# total energy = -19885.78744409 eV

CRYSTAL
PRIMVEC
        9.04850938     0.00000000     0.00000000
        0.00003029     4.63683529     0.00000000
        0.00000000     0.00000000    13.67085982
PRIMCOORD
24 1
Ti      3.27966754     2.74778439     5.07179149     0.37518965    -0.52501458     2.75585671
Ti      5.76887234     1.88905111     8.59906847    -0.37518965     0.52501458    -2.75585671
Ti      7.80376735     1.88905276     1.76358387     0.37472300     0.52496238    -2.75680417
Ti      1.24477260     2.74778295    11.90727629    -0.37472300    -0.52496238     2.75680417
Ti      3.27965247     0.42936681     1.76363869     0.37518965    -0.52501458    -2.75585671
Ti      5.76888748     4.20746882    11.90722147    -0.37518965     0.52501458     2.75585671
Ti      1.24475746     0.42936503     8.59901364    -0.37472300    -0.52496238    -2.75680417
Ti      7.80378242     4.20747061     5.07184631     0.37472300     0.52496238     2.75680417
O       2.86392113     1.63270860     6.97613513     0.71787901     1.32818996    -2.44946955
O       6.18461882     3.00412690     6.69472482    -0.71787901    -1.32818996     2.44946955
O       1.66040804     1.63272726     0.14074915    -0.71706808     1.32833317    -2.44992438
O       7.38813198     3.00410824    13.53011039     0.71706808    -1.32833317     2.44992438
O       6.18460368     0.68570925     0.14070481    -0.71787901    -1.32818996    -2.44946955
O       2.86393620     3.95112624    13.53015480     0.71787901     1.32818996     2.44946955
O       7.38811690     0.68569059     6.97617947     0.71706808    -1.32833317    -2.44992438
O       1.66042291     3.95114497     6.69468048    -0.71706808     1.32833317     2.44992438
O       0.32877183     2.82038612     3.69284028    -2.29997604     0.72657063     0.04625725
O       8.71976805     1.81644945     9.97801967     2.29997604    -0.72657063    -0.04625725
O       4.85303784     1.81640617     3.14263314    -2.30141740    -0.72659582    -0.04621508
O       4.19550204     2.82042940    10.52822661     2.30141740     0.72659582     0.04621508
O       0.32875675     0.50196840     3.14258949    -2.29997604     0.72657063    -0.04625725
O       8.71978320     4.13486710    10.52827026     2.29997604    -0.72657063     0.04625725
O       4.19548696     0.50201169     9.97806325     2.30141740     0.72659582    -0.04621508
O       4.85305299     4.13482381     3.69279663    -2.30141740    -0.72659582     0.04621508
