# total energy = -19959.85399170 eV

CRYSTAL
PRIMVEC
        7.60600008     0.00000000     0.00000000
        0.00000000     7.60600008     0.00000000
       -1.89786986    -1.89786986     4.85670466
PRIMCOORD
24 1
Ti      3.79071900     6.47091499     1.24860399    -0.92146649     1.87245748    -0.42184028
Ti      3.84089300     2.87980699     1.25427402    -1.93012812    -2.01436006    -1.13205354
Ti      0.00351898     6.76089301     1.18169900     1.09436707    -0.13844033     1.21441603
Ti     -0.02021600     2.94580899     1.23004601     0.83835298    -0.05495427    -0.84498283
Ti      5.71921024     2.89659323     3.64032783     0.51636821    -0.58299297     0.09684732
Ti      5.75396221    -0.97890679     3.58851979    -0.02218220     0.83660385     0.03645389
Ti      1.93162624     2.80996824     3.63533182    -1.19683508    -0.29959662    -0.25950180
Ti      1.92778621    -1.07991678     3.65789879    -0.26898608     0.71769029     1.06773583
O       3.48716499     4.59897698     0.77678997     0.98129197     1.67926677    -0.42167984
O       3.58826600     0.76534302     0.94794299     1.38105752     1.73527468    -0.80853485
O       0.07972500     4.90265302     0.71746899    -0.52852156     0.12167750    -0.21302266
O      -0.01028001     1.04392701     0.73257499    -0.24644496    -0.90478696    -0.10069626
O       5.99853825     4.85814122     3.86509883    -0.53469350    -0.97890290     1.28026407
O       5.72128324     1.05331425     4.03891880    -0.28867920    -0.07682485    -0.52405864
O       1.67760920     4.67034420     4.09731679     0.70785582    -0.84377312     0.16131390
O       1.73998824     0.82313124     4.12316281     1.41081008     0.47867994     0.29311461
O       3.80997121     3.12175524     3.30158782    -0.01324401    -1.02513983    -0.15564256
O       3.77560824    -1.13955077     3.21798279     1.43181523    -0.14984189     1.02564428
O       0.10769223     2.62848420     3.06521583    -3.27250466     0.26048036     1.57715512
O       0.11179922    -1.01319880     3.15676079    -2.10836991     0.74554537    -1.13526382
O       5.65978998     6.63925199     1.62869602     1.65800811     0.17069277    -0.41696290
O       5.60771899     3.08519603     1.57309098     1.46169917    -0.35417885     0.45328797
O       2.00321900     6.70995203     1.70681799    -2.59352491    -0.48915513    -0.32961246
O       1.75273999     3.08815000     1.68967899     2.44395427    -0.70542098    -0.44238032
