# total energy = -19946.85606358 eV

CRYSTAL
PRIMVEC
        5.27825781     0.00000000     0.00000000
        2.16066415     5.18552413     0.00000000
        0.00000000     0.00000000     9.64943656
PRIMCOORD
24 1
Ti      3.19352221     3.07293690     3.57987214     2.31601459    -3.44503192     1.17102531
Ti      4.24539984     2.11258738     6.06956452    -2.31601459     3.44503192    -1.17102531
Ti      5.43241378     2.11258915     1.24480762    -4.92479567     0.25515869     1.37100219
Ti      2.00650831     3.07293534     8.40462910     4.92479567    -0.25515869    -1.37100219
Ti      2.11319023     0.48017481     1.24484630     2.31601459    -3.44503192    -1.17102531
Ti      5.32573184     4.70534963     8.40459041    -2.31601459     3.44503192     1.17102531
Ti      0.92617621     0.48017290     6.06952579     4.92479567    -0.25515869     1.37100219
Ti      6.51274587     4.70535153     3.57991082    -4.92479567     0.25515869    -1.37100219
O       2.43140849     1.82591125     4.92403363     0.41896270     1.29613575    -1.11581085
O       5.00751350     3.35961304     4.72540303    -0.41896270    -1.29613575     1.11581085
O       1.72937317     1.82593221     0.09934636     0.91811814    -0.73578418     0.20661907
O       5.70954895     3.35959217     9.55008998    -0.91811814     0.73578418    -0.20661907
O       3.92718151     0.76685084     0.09931503    -0.41896270    -1.29613575    -1.11581085
O       3.51174053     4.41867343     9.55012131     0.41896270     1.29613575     1.11581085
O       4.62921689     0.76682993     4.92406490    -0.91811814     0.73578418     0.20661907
O       2.80970506     4.41869442     4.72537171     0.91811814    -0.73578418    -0.20661907
O       1.50600976     3.15412988     2.60655356     0.31619310     0.01466224    -0.00003625
O       5.93291224     2.03139441     7.04288310    -0.31619310    -0.01466224     0.00003625
O       3.67731631     2.03134615     2.21819546     1.76205967    -0.37017214    -1.26062829
O       3.76160568     3.15417814     7.43124104    -1.76205967     0.37017214     1.26062829
O       0.42567775     0.56136764     2.21816461     0.31619310     0.01466224     0.00003625
O       7.01324429     4.62415664     7.43127184    -0.31619310    -0.01466224    -0.00003625
O       2.68127369     0.56141595     7.04291384    -1.76205967     0.37017214    -1.26062829
O       4.75764831     4.62410834     2.60652277     1.76205967    -0.37017214     1.26062829
