# total energy = -4989.72694317 eV

CRYSTAL
PRIMVEC
        3.96638187     0.00000000     0.00000000
        0.59162066     3.92201098     0.00000000
       -2.27903700    -1.96103624     5.07636408
PRIMCOORD
6 1
Ti      0.44357126     2.94165814     1.26909075     0.00059778    -0.00059778     0.00000000
Ti      1.83539468    -0.98068305     3.80727279    -0.00059778     0.00059778     0.00000000
O       0.14794688     0.98049688     0.82689809    -0.00040006    -0.00096519    -0.70535207
O       2.13101887     0.98047806     4.24946544     0.00040006     0.00096519     0.70535207
O      -0.14792261    -0.98047600     3.36508014    -0.00096519    -0.00040006    -0.70535207
O       2.42688831     2.94145094     1.71128340     0.00096519     0.00040006     0.70535207
