# total energy = -19073.12373284 eV

CRYSTAL
PRIMVEC
        5.93400000     0.00000000     0.00000000
        0.00000000     9.29699974     0.00000000
        0.00000000     0.00000000     4.64899994
PRIMCOORD
22 1
Ti      4.35454800     7.15320301     2.40533598     1.22896463    -2.45190670    -0.00215124
Ti      4.40532700     2.40154500     2.15069499     0.58143103    -0.46789981     0.44539442
Ti      1.44996397     7.12702101     2.51166499    -0.75227627    -1.42145265     0.75642166
Ti      1.67462099     2.41923498     2.19243998    -1.30592600    -0.43687301     0.27329731
Ti      3.03843200     4.59360398     4.44594199    -0.36703745     0.94375025     0.59592203
Ti      3.00728600     9.25353900     0.04839702    -0.75147331     1.45948956     0.50173734
Ti      5.89273503     4.53638902     4.63418102    -0.88915542     0.57367452    -1.04169337
Ti      5.90825399     9.17141201     0.11243101     0.39004935     1.04591538     1.55085658
O       4.31805599     5.39909700     0.91109802     1.03516843     0.33359099     0.85413184
O       4.42656098     0.74287802     1.14458700     0.33876894    -0.04388566    -1.30907123
O       1.58930100     0.75938602     1.09142702    -0.76747304     0.82902527    -0.99451490
O       4.51570797     8.19934097     3.94410902    -0.55946711     1.63894466    -0.24192213
O       4.40636101     3.90201000     3.51605998     1.26364496    -1.81322181    -0.89914699
O       1.37212502     8.23364198     3.92319699     0.84467635     1.21000119    -0.03949859
O       1.53975398     3.98957101     3.39227102    -1.15595298    -0.95532330     0.52024312
O       2.94433502     6.19813100     3.46052102    -0.47765278     0.38412578    -1.39627126
O       3.08589899     1.50883198     3.22534799    -0.54156914    -0.70066649     1.22022467
O       5.73519801     6.12439200     3.33508702     1.48343323    -0.58918188    -0.51747456
O       2.85768701     8.01607298     1.59451498     0.00966555    -1.04709012    -0.46537884
O       3.01278500     2.98353399     1.12663302     0.16942805     1.53048289    -1.04290873
O       0.03814802     7.97513900     1.48348100    -0.32117384    -1.38857646     1.12243993
O       0.01733701     2.86179501     1.16604398     0.54392710     1.36707688     0.10936294
