# total energy = -4989.22271505 eV

CRYSTAL
PRIMVEC
        3.67943430     0.00000000     0.00000000
        0.90569872     3.56622301     0.00000000
       -2.29260001    -1.78313756     4.73347712
PRIMCOORD
6 1
Ti      0.67915456     2.67480383     1.18336920     0.00046717    -0.00046717     0.00000000
Ti      1.61337862    -0.89171825     3.55010761    -0.00046717     0.00046717     0.00000000
O       0.22646326     0.89155067     0.77104469    -0.00001517     0.00047771    -0.15893100
O       2.06606975     0.89153482     3.96243213     0.00001517    -0.00047771     0.15893100
O      -0.22643697    -0.89153023     3.13778310     0.00047771    -0.00001517    -0.15893100
O       2.51896998     2.67461567     1.59569372    -0.00047771     0.00001517     0.15893100
