# total energy = -19072.76845092 eV

CRYSTAL
PRIMVEC
        5.93400000     0.00000000     0.00000000
        0.00000000     9.29699974     0.00000000
        0.00000000     0.00000000     4.64899994
PRIMCOORD
22 1
Ti      4.45975198     6.77355998     2.30599703    -1.23756703     0.20106317     0.82078205
Ti      4.33290200     2.35091401     2.30951600     1.30806336     0.98557337    -0.72426075
Ti      1.46474601     7.04147099     2.43665798     1.11135281    -1.93451391     0.24476371
Ti      1.49321898     2.50725202     2.26067903    -0.23712008     0.00324910     0.02106120
Ti      2.99974602     4.64127999     0.04896900    -0.37093011    -1.12054862    -1.79532873
Ti      3.02705601     0.03335499     4.59399202    -0.96923477    -0.41729508    -0.28788473
Ti      5.92919899     4.63758199     4.61644300    -0.69519081    -0.89247960    -0.62309268
Ti      0.01008702     9.19311601     0.22875301     0.09705841     2.41290099    -1.92614650
O       4.27577901     5.70432999     0.73892099     2.44419750    -0.50093721     2.45721243
O       4.40000400     0.95503698     0.70014997     1.41645288     0.70284165     1.79637131
O       1.55449802     0.95454400     0.97325899    -0.44642852    -1.15764220    -0.92477216
O       4.45001702     8.32799799     3.87368802     0.15502575    -0.01694846    -1.65338064
O       4.47777200     3.79474398     3.49040398     0.19894304     0.07081541     0.76527937
O       1.52962499     8.32529601     3.54787099    -0.66490706     3.57502051     2.81864693
O       1.44936198     3.70502499     3.71378499    -0.00655734     0.24675837    -0.23206966
O       2.86747499     6.05863500     3.51277902     0.03016676     0.41158158    -2.53407379
O       3.03295702     1.69455700     3.28573801    -1.15589873    -2.82029501     0.91870204
O       0.04763601     6.00161801     3.37153902    -0.59549600     1.54080999    -1.95858381
O       2.85997798     7.58533502     1.41655802     1.10756712     1.52125109    -0.93479226
O       2.97614403     3.10489100     1.27725999     0.36472809     1.32081372    -0.78717875
O       0.10320999     7.87642702     1.26376597    -0.86069819    -3.13078540     2.90158792
O       0.14151999     3.34517499     1.25133602    -0.99352734    -1.00123345     1.63715774
