# total energy = -4989.06750900 eV

CRYSTAL
PRIMVEC
        3.98605382     0.00000000     0.00000000
        0.98117361     3.86340826     0.00000000
       -2.48365001    -1.93173236     5.12793355
PRIMCOORD
6 1
Ti      0.73575077     2.89770415     1.28198331     0.00001671    -0.00001671     0.00000000
Ti      1.74782683    -0.96602810     3.84594992    -0.00001671     0.00001671     0.00000000
O       0.24533520     0.96584656     0.83529841    -0.00053376    -0.00081555    -1.01468547
O       2.23824223     0.96582939     4.29263481     0.00053376     0.00081555     1.01468547
O      -0.24530672    -0.96582441     3.39926502    -0.00081555    -0.00053376    -1.01468547
O       2.72888414     2.89750031     1.72866820     0.00081555     0.00053376     1.01468547
