# total energy = -39034.63082706 eV

CRYSTAL
PRIMVEC
        7.60600008     0.00000000     0.00000000
        0.00000000     7.60600008     0.00000000
       -3.79573973    -3.79573973     9.71340985
PRIMCOORD
46 1
Ti      2.08326743     4.65045645     6.01839261    -0.47206217     1.36838429    -0.90537472
Ti      4.00564101     6.74092398     1.26668402    -2.30345269     0.98063994    -1.37334832
Ti      1.80443447     0.73048644     6.09938260     0.53762738     0.92859436    -0.50836179
Ti      3.70066600     3.05938302     1.30106302     0.33567410    -1.40731543     0.18572422
Ti     -1.78473357     4.61364344     6.20770265     0.09856148     0.44882916    -1.98658082
Ti      0.00411001     6.59061398     1.18363499     1.53175353    -0.48302767    -1.55708585
Ti     -1.92944455     0.87349844     6.01453962     0.66218941    -0.09150971    -0.85978570
Ti      0.05533998     2.80609599     1.21481501    -1.16720311     1.15431802     0.08564733
Ti      3.82561046     0.94736142     8.40460063    -0.21824920     1.55447361     0.30776579
Ti      5.42200101     2.77577201     3.57611498    -0.36295763     0.26144324     1.48505688
Ti      3.71270245    -2.75750757     8.46939664     1.63736857    -0.73065662     0.87614821
Ti      5.73555599    -1.06937700     3.56418198    -0.63420962    -0.25540037     3.03816086
Ti     -0.00880853     1.08383444     8.43205662    -0.30394153     0.06799105    -1.21331740
Ti      1.63355901     2.75542800     3.64574301     1.63144938     0.20907807     0.82766515
Ti      0.08569745    -2.78787054     8.66752361    -0.14134233    -0.18169787     0.41006128
Ti      1.88861498    -1.04372899     3.58671699     0.50694177    -0.16784939    -0.53205837
O       1.98994946    -0.99607854     5.56399260    -0.01069734    -1.03676251    -0.12053439
O       3.99017300     1.02486499     0.86631100    -0.77717047     0.26690323    -1.66489867
O      -2.00699457     2.77759847     5.55431464     1.01649655     2.08039013     1.66090678
O      -0.16865900     4.66249100     0.75801101     0.70520681     2.12776889    -0.18641842
O      -1.75314253    -0.96196555     5.54829662     0.26833637    -0.68308349     0.74542839
O       0.00534400     1.00224599     0.88331399    -0.29273563    -1.17426387    -0.84950411
O       3.64590245     2.85965544     8.80346761     0.52541104     0.68433510     1.24194562
O       5.36487098     4.73189403     4.18485202     0.77586666     0.25918349    -0.93004883
O       3.73472342    -0.85210756     8.92431561     0.32656416    -1.50372773    -0.64790178
O       5.65021097     0.96624898     4.06740298     0.72867070    -0.86460344    -0.90508856
O       0.35034143     2.71919545     9.10070663    -0.70965790     2.41323009    -0.89281436
O       2.28371898     4.68934198     3.93604901    -1.50983641     0.59229420     0.99730892
O       0.06379242    -0.58843955     9.08680065    -0.24811772    -2.32952369     0.29239162
O       1.63009300     0.92601097     4.08115201     0.10237931     0.30152726     0.28492307
O       1.87142645     1.10643046     7.99617760     1.16193286    -0.90943732    -0.99311596
O       3.56656100     2.65261500     3.33634201     1.69849735     0.14924102    -0.40392637
O       1.98623146    -2.74840953     8.04522863    -1.54138103    -0.10514145     0.68581374
O       3.96446499    -0.70051198     3.03718198    -1.85135951    -0.43827581     3.29908525
O      -1.91752854     1.21841347     8.10406161     0.12452114    -0.62516165    -0.14241037
O      -0.06333500     3.07728599     3.10732400    -1.48112695    -0.17130007     0.93765467
O      -1.91883555    -2.84491955     8.13382862     2.33702385    -0.15910429     0.14143078
O      -0.00679501    -1.13729901     3.10839002     1.46253735    -0.07122164     0.91649192
O       3.90773644     5.00238446     6.50877561    -0.27258512    -1.03177894     0.41046340
O       5.77992602     6.53668902     1.64598298     0.72687684    -0.27732906    -1.24788975
O       3.92532047     1.00449246     6.34075665    -3.22299008    -0.67121887     1.27212549
O       5.49956898     2.83193899     1.72718200     0.79078112     0.85123421    -1.01083241
O       0.26151844     4.77813544     6.49773364    -2.33963918    -0.85378217    -0.11736679
O       1.98404199     6.72839999     1.58367997    -0.83162491    -0.76018473     0.14496528
O      -0.02195556     0.94351843     6.41158861     0.68970948     0.17550974     0.51431904
O       1.84145999     2.92196998     1.71598201     0.30996228     0.10798869    -1.71281994
