# total energy = -4990.33607258 eV

CRYSTAL
PRIMVEC
        2.93806227     0.00000000     0.00000000
        0.23003164     4.59775229     0.00000000
       -0.00000127    -0.00005975     4.60494339
PRIMCOORD
6 1
Ti      1.58404621     2.29884612     2.30247159     0.00000000     0.00000000     0.00000000
Ti      0.00000000     0.00000000     0.00000000     0.00000000     0.00000000     0.00000000
O       1.51386058     0.89602244     0.89743558    -0.30124187     0.14146960     0.13822461
O       1.65423178     3.70166979     3.70750755     0.30124187    -0.14146960    -0.13822461
O       0.07018500     1.40279945     3.19990810     0.30114957    -0.14134902     0.13808346
O       0.15984527     3.19489298     1.40503503    -0.30114957     0.14134902    -0.13808346
