# total energy = -19928.50070995 eV

CRYSTAL
PRIMVEC
        6.17644624     0.00000000     0.00000000
        0.98055891     6.50006205     0.00000000
        0.00000000     0.00000000    11.08587421
PRIMCOORD
24 1
Ti      2.81974297     3.85193069     4.11278030    -0.09703193    -1.57093716     0.75516542
Ti      4.33726210     2.64813118     6.97309416     0.09703193     1.57093716    -0.75516542
Ti      5.72626683     2.64813337     1.43011260     0.07246503     0.04676401    -0.37672537
Ti      1.43073826     3.85192874     9.65576199    -0.07246503    -0.04676401     0.37672537
Ti      2.32946365     0.60189978     1.43015706    -0.09703193    -1.57093716    -0.75516542
Ti      4.82754144     5.89816228     9.65571753     0.09703193     1.57093716     0.75516542
Ti      0.94045891     0.60189739     6.97304970    -0.07246503    -0.04676401    -0.37672537
Ti      6.21654618     5.89816466     4.11282476     0.07246503     0.04676401     0.37672537
O       2.30015567     2.28878227     5.65703681     1.66873296     1.77721916    -0.40411946
O       4.85684941     4.21127960     5.42883759    -1.66873296    -1.77721916     0.40411946
O       1.47865041     2.28880854     0.11413528    -1.01246506     0.60962036     0.56156333
O       5.67835473     4.21125338    10.97173887     1.01246506    -0.60962036    -0.56156333
O       4.36657007     0.96124850     0.11409932    -1.66873296    -1.77721916    -0.40411946
O       2.79043500     5.53881336    10.97177482     1.66873296     1.77721916     0.40411946
O       5.18807540     0.96122228     5.65707283     1.01246506    -0.60962036     0.56156333
O       1.96892962     5.53883965     5.42880163    -1.01246506     0.60962036    -0.56156333
O       0.82083608     3.95370620     2.99457125     0.44757138     0.80642861     1.10698168
O       6.33616899     2.54635560     8.09130322    -0.44757138    -0.80642861    -1.10698168
O       3.69675815     2.54629515     2.54840125     0.61724214     1.15850583     0.35273414
O       3.46024692     3.95376665     8.53747302    -0.61724214    -1.15850583    -0.35273414
O       0.33055674     0.70367510     2.54836580     0.44757138     0.80642861    -1.10698168
O       6.82644833     5.79638670     8.53750841    -0.44757138    -0.80642861     1.10698168
O       2.96996759     0.70373555     8.09133854    -0.61724214    -1.15850583     0.35273414
O       4.18703748     5.79632625     2.99453586     0.61724214     1.15850583    -0.35273414
