# total energy = -19075.74245978 eV

CRYSTAL
PRIMVEC
        7.60600008     0.00000000     0.00000000
        0.00000000     7.60600008     0.00000000
       -1.89786986    -1.89786986     4.85670466
PRIMCOORD
22 1
Ti      3.77532698     6.55071899     1.27641400    -0.25273388    -0.02874572    -0.06542817
Ti      3.76852600     2.78988501     1.21772898    -0.37417741     0.37296051    -0.60688650
Ti     -0.04908198     6.62073697     1.19389500     0.89938507     0.70230017    -0.57456309
Ti     -0.07693899     2.91502601     1.13955701     0.06669933    -0.41690556    -0.51954558
Ti      5.66316920     2.98554724     3.54138984     0.35658643     0.05044738     0.41544929
Ti      6.14867324    -0.83011178     3.70805580    -2.17087808    -0.30217647     0.34005320
Ti      1.83638725     2.75625125     3.60293379     0.21573620    -0.46082593     0.33280397
Ti      1.93363325    -1.11000379     3.78558180    -1.15821633     1.69921751    -1.82660492
O       3.56606400     4.64238698     0.71085602     0.41358781     0.44085102     0.14124926
O       3.80189401     0.85528601     0.85612402     0.13148292     0.78003288     1.17792770
O       0.06819100     4.79608899     0.69955798    -0.16034099    -0.05984630    -0.22636592
O       7.27705202     0.92457299     0.70118002     1.08293414     1.39266888     0.70017439
O       5.80585322     4.85882825     4.09564379     0.19259421    -0.24321899    -1.32730319
O       5.44088724     1.00879022     3.95932382     1.52674373    -0.53315341     0.00664065
O       1.89239521     4.72594623     4.25812079     0.14473774    -1.57952002    -1.78436297
O       2.03972720     0.84677721     3.97954082    -0.23503440     0.36923395     0.25030547
O       3.77337125     2.93826621     3.16206881    -0.26233284     0.16999395    -0.09097621
O       0.02582925     2.98462520     3.13914882    -0.56883647    -0.59432820     0.10421945
O       5.68083600     6.66170598     1.78087100     0.14452870    -0.65965070     1.18115649
O       5.70785298     3.29420400     1.55842700    -0.75564878    -1.29322115     0.74344915
O       1.84173501     6.52910099     1.75035901     0.47646159     0.44021391     1.13368259
O       1.84295201     2.75871599     1.47285401     0.28672105    -0.24632720     0.49492469
