# total energy = -19071.15072703 eV

CRYSTAL
PRIMVEC
        5.17600016     0.00000000     0.00000000
        0.00000000     5.50899976     0.00000000
        0.00000000     0.00000000     9.26300011
PRIMCOORD
22 1
Ti      1.50742500     3.08565202     3.53704101     0.65556239     0.09631125    -0.69552531
Ti      4.62280202     3.14493998     5.74447702    -1.92325067    -0.26311008    -3.50140620
Ti      4.18592799     2.03725298     1.46200900     0.57986420     1.46021616     1.79452654
Ti      1.35102698     3.07053702     8.05484902     0.57605639    -3.43954081    -0.22200070
Ti      1.57320301     0.49897700     1.27581502     0.65695747    -0.43454642     1.26477574
Ti      3.33146797     5.18815298     8.17489801    -0.89606938     0.57232700    -1.24353790
Ti      1.37735800     0.10155901     5.94516802     1.83842120     1.60047400    -2.03034384
Ti      3.79828899     5.04670702     3.30891502    -0.94823785    -0.82458060     2.10160019
O       3.09032100     3.39749199     4.51841800     1.48028491    -0.44543916     0.54371036
O       0.71895000     1.95898799     0.55901703    -0.27700510     1.07189048    -2.80304367
O       4.90513798     3.72687901     7.48220499    -1.66034113     1.55550822     0.84233305
O       3.46640701     0.49955100     0.67749198    -0.81823923    -0.36764783    -2.45839565
O       1.99956397     4.24568899     9.19419600     0.17317646     1.33172420     1.35802968
O       2.83317801     0.33151298     4.61488701    -0.23296954     0.47971455     1.26350150
O       0.12650400     4.71530702     4.71434598     0.69115341    -0.35256934     1.71774977
O       4.91332700     3.30994898     2.71348102    -1.14600461     0.62575275    -1.56276773
O       0.83721799     2.12222102     4.90329999    -1.82040033    -0.98972210     2.39650943
O       2.47569401     1.82673701     2.58370602     0.11367314    -0.53353547    -2.02367003
O       2.26388600     4.09171799     6.70990302     0.22551566     0.26848986     0.44480873
O       5.01574603     0.74006798     2.38573700     1.15214646    -1.54190476     1.54017467
O       2.17605898     1.20578498     7.34102098     0.47351150    -0.08550747     1.34269253
O       2.00944699     4.62758001     2.50451300     1.10619466     0.21569635    -0.06972089
