# total energy = -19957.61679997 eV

CRYSTAL
PRIMVEC
        5.93400000     0.00000000     0.00000000
        0.00000000     9.29699974     0.00000000
        0.00000000     0.00000000     4.64899994
PRIMCOORD
24 1
Ti      4.38385600     6.96956199     2.25541101     3.05711581    -0.87347477    -0.21672839
Ti      4.48331201     2.29026199     2.33964899     0.49613799     0.72187913     0.08583554
Ti      1.54242500     6.93406600     2.36931298    -3.26987699    -1.65806956    -0.45288431
Ti      1.48628898     2.44447599     2.35125401    -0.09087799     0.39811567    -0.85090356
Ti      2.98491302     4.86695498     4.63578602    -0.39182804    -2.89026710     2.11073507
Ti      3.04160902     9.06333402     4.61799302     0.23314669     3.61035571    -1.71298758
Ti      5.92276499     4.63842100     4.44480002    -0.18695964    -1.55192873     1.78056802
Ti      0.01587701     9.12048003     0.21280900     1.17348200     3.25654993     0.44399034
O       4.53566801     5.62109501     0.82748299    -1.09209473     1.11140115     0.97708230
O       4.40227200     0.75526299     0.90386702    -0.83591197     0.39174062     0.01893001
O       1.37715601     5.50511602     0.94988401     1.13291203     2.15195038     1.10717657
O       1.31678800     1.09276102     1.04836300    -0.05288298    -3.25193994    -2.12221556
O       4.63594699     8.20852802     3.80570498    -2.72609207     0.88515556    -0.52470424
O       4.34526803     3.76663001     3.87122200    -0.13629320    -0.31586734    -1.46695374
O       1.33599401     8.52630399     3.71802201     2.57313323    -1.23240734    -0.48203086
O       1.50832900     3.90600302     3.77837298     0.47131938    -0.51267816    -0.81456564
O       3.07858898     5.96399499     3.00161301    -1.55438619     0.44825400     1.28416469
O       2.83881501     1.48808500     3.10097900     2.16201343    -1.42685711     1.49294606
O       0.11910901     6.19136700     3.41697598     0.29016093     0.58190797    -2.19191382
O       0.07310499     1.56598402     3.28661798    -2.71945117    -0.06183403    -0.03289573
O       3.03542902     7.83037600     1.26170102    -1.33088911    -0.83093508     1.66051057
O       2.81059701     3.40543499     1.45443499     1.56582400     0.39452924    -0.65040835
O       5.89046300     7.71227401     1.48218399     1.74007878     1.33309640    -0.79751973
O       5.78125601     3.30995300     1.31193200    -0.50778021    -0.67867636     1.35477209
