# total energy = -19513.25952923 eV

CRYSTAL
PRIMVEC
        5.17600016     0.00000000     0.00000000
        0.00000000     5.50899976     0.00000000
        0.00000000     0.00000000     9.26300011
PRIMCOORD
23 1
Ti      2.01102299     2.94296202     3.21582401    -0.17298826     0.31460956     3.80389969
Ti      3.14282899     2.43962100     5.86938799     2.21141719     1.19070300    -2.75335760
Ti      4.45648801     1.97141201     1.45955002     2.41412355    -1.67691756    -2.30253198
Ti      1.03261198     3.27409802     7.81646203    -1.57946191     2.24983566     0.54829155
Ti      2.06828701     0.06568301     1.31224401    -1.49541997     0.68850312    -2.48860253
Ti      3.08210299     0.22428400     7.66679101     2.82354566    -4.14707549     1.06802251
Ti      0.71306502     0.64169198     6.17290602    -2.23637053     0.28825600    -2.89151125
Ti      4.59329002     4.76768202     3.21337101     0.74409039    -1.87516100     4.31799118
O       1.68831298     1.74464802     4.82823799     0.56190683     0.92295593    -0.36012427
O       3.31950899     3.69696599     4.47622701     0.17539224    -0.55641496    -1.30253651
O       0.30101100     2.48046899     0.11083999     0.23671821    -0.01613111    -0.21433392
O       3.55349202     0.48040700     0.16459900    -0.05438425     1.72896313     0.04908521
O       1.71651701     4.50417202     9.11841602     0.06546365     0.99628279    -0.82189148
O       4.20246298     0.90384501     5.33683999    -2.34281681     0.62497576    -0.48980485
O       0.56483798     4.89768600     4.56930601     0.92407462    -0.56661530    -0.79320542
O       0.24025801     2.84823601     2.75442902    -0.92236149     1.34584676     0.38138987
O       4.92542801     2.37429000     6.87818800    -0.59067415     0.32613710     0.05297580
O       2.88471098     1.63419899     2.31975600    -1.91800870    -0.93220213     0.36822685
O       2.45488898     4.14436599     6.64419101    -0.82522878     1.47124157     1.68533715
O       0.17571198     0.18443499     1.85904498     0.91459958     1.72842577    -0.62842413
O       4.96028899     5.07325098     7.26920797    -0.08786080    -0.93776883     1.66648813
O       2.13382799     1.79510200     7.40333202    -0.04355193    -1.71339741     0.42396556
O       2.87219700     4.32970201     2.18620400     1.19779513    -1.45505184     0.68065045
