# total energy = -19517.77219668 eV

CRYSTAL
PRIMVEC
        5.93400000     0.00000000     0.00000000
        0.00000000     9.29699974     0.00000000
        0.00000000     0.00000000     4.64899994
PRIMCOORD
23 1
Ti      4.55352901     6.97050499     2.34448599    -1.00779594     0.82609395    -0.74534740
Ti      4.44716698     2.33566900     2.36414101     0.05543609    -0.32397789     0.12017546
Ti      1.50717401     7.07437899     2.31576601     0.24157554     0.73435233    -0.64734771
Ti      1.44693798     2.30423301     2.26135902    -0.31370658    -0.20098372     0.56657210
Ti      2.91827098     4.46914001     0.04349900     0.11985510    -0.52709563     0.08985803
Ti      3.00732400     0.05048198     4.64620002    -0.24249677     0.18947418     0.14638324
Ti      5.92792298     4.67225803     4.64418999    -0.21902825    -0.53027711     0.22192151
Ti      0.02441100     0.02972600     0.04291199    -0.39006940     0.34458657    -0.25917398
O       4.47060302     5.52866801     0.92756099    -0.38793976     0.13005056    -0.48739906
O       4.36284698     0.94793802     1.00178000     0.59365226    -0.53605567    -0.92536454
O       1.53097101     5.45947501     0.82464501    -0.00058236     1.33447040     0.24841725
O       1.46633201     0.91851301     0.90340701    -0.55945040    -0.71085989    -0.34669745
O       4.33040301     8.44378599     3.74630097     1.11894837    -0.89078627    -0.27160270
O       4.46991599     3.61981899     3.79687000    -0.29282999     1.03534840    -0.59652495
O       1.34403999     8.35744400     3.67697801     0.69072275     0.21144709     0.80199499
O       1.51561402     3.66353400     3.62863799     0.21926967     1.82577780     0.99167229
O       2.84797798     1.40488897     3.20316800     1.20972814    -0.28429212     0.47261804
O       0.02929102     6.14693802     3.12022603     0.32120727    -1.97735776     1.83754420
O       0.01718201     1.50769600     3.28611098    -0.82257668    -0.82133535    -0.12263601
O       3.01174199     7.95282201     1.50286598    -0.65289409    -0.85653711    -0.16679472
O       2.88581400     3.18736798     1.36318901     1.14390016     0.32340299     0.06701223
O       5.92591698     7.84299598     1.42351400     0.15019156     1.03656325    -1.40729101
O       0.06002198     3.28333999     1.33146002    -0.97511618    -0.33200899     0.41201018
