# total energy = -4988.75170224 eV

CRYSTAL
PRIMVEC
        4.02438126     0.00000000     0.00000000
        0.99060798     3.90055642     0.00000000
       -2.50753126    -1.95030671     5.17724060
PRIMCOORD
6 1
Ti      0.74282530     2.92556669     1.29431007     0.00014270    -0.00014270     0.00000000
Ti      1.76463286    -0.97531683     3.88293020    -0.00014270     0.00014270     0.00000000
O       0.24769419     0.97513355     0.84333013    -0.00056744    -0.00094102    -1.07793283
O       2.25976379     0.97511621     4.33391014     0.00056744     0.00094102     1.07793283
O      -0.24766544    -0.97511118     3.43195026    -0.00094102    -0.00056744    -1.07793283
O       2.75512341     2.92536089     1.74529001     0.00094102     0.00056744     1.07793283
