# total energy = -19947.73703743 eV

CRYSTAL
PRIMVEC
        5.72172674     0.00000000     0.00000000
        1.20590063     5.96905436     0.00000000
        0.00000000     0.00000000    10.29273199
PRIMCOORD
24 1
Ti      2.78846625     3.53725609     3.81853029     0.20916009    -1.76153722     0.87408515
Ti      4.13916084     2.43179842     6.47420211    -0.20916009     1.76153722    -0.87408515
Ti      5.42590495     2.43180056     1.32779479    -0.49991160    -0.35408423     0.01387111
Ti      1.50172216     3.53725418     8.96493773     0.49991160     0.35408423    -0.01387111
Ti      2.18551607     0.55272913     1.32783606     0.20916009    -1.76153722    -0.87408515
Ti      4.74211104     5.41632555     8.96489646    -0.20916009     1.76153722     0.87408515
Ti      0.89877189     0.55272682     6.47416084     0.49991160     0.35408423     0.01387111
Ti      6.02885522     5.41632786     3.81857156    -0.49991160    -0.35408423    -0.01387111
O       2.23558065     2.10180554     5.25230251     1.44064569     1.67736338    -0.55135708
O       4.69204644     3.86724896     5.04042989    -1.44064569    -1.67736338     0.55135708
O       1.47455711     2.10182958     0.10596946    -0.59620639     0.13025985     0.72845756
O       5.45307004     3.86722498    10.18676265     0.59620639    -0.13025985    -0.72845756
O       4.08909625     0.88272183     0.10593605    -1.44064569    -1.67736338    -0.55135708
O       2.83853084     5.08633267    10.18679606     1.44064569     1.67736338     0.55135708
O       4.85011985     0.88269785     5.25233592     0.59620639    -0.13025985     0.72845756
O       2.07750719     5.08635672     5.04039648    -0.59620639     0.13025985    -0.72845756
O       0.94138062     3.63071716     2.78032379     0.29660386     0.94412691     1.03285983
O       5.98624647     2.33833734     7.51240860    -0.29660386    -0.94412691    -1.03285983
O       3.54115042     2.33828159     2.36607515     0.77269392     1.03173009     0.25517566
O       3.38647668     3.63077291     7.92665708    -0.77269392    -1.03173009    -0.25517566
O       0.33843043     0.64619003     2.36604226     0.29660386     0.94412691    -1.03285983
O       6.58919667     5.32286454     7.92668996    -0.29660386    -0.94412691     1.03285983
O       2.78352648     0.64624572     7.51244143    -0.77269392    -1.03173009     0.25517566
O       4.14410061     5.32280878     2.78029091     0.77269392     1.03173009    -0.25517566
