# total energy = -19516.79777482 eV

CRYSTAL
PRIMVEC
        5.93400000     0.00000000     0.00000000
        0.00000000     9.29699974     0.00000000
        0.00000000     0.00000000     4.64899994
PRIMCOORD
23 1
Ti      4.58653798     7.19071199     2.26914898     0.66366008     0.23483077    -0.16211326
Ti      4.28785801     2.25130597     2.33075300     1.80453714    -0.49695432     0.28656395
Ti      1.55450199     6.94077602     2.23079999     0.68838896     0.76697013     0.44058543
Ti      1.36531800     2.28573499     2.29714198    -1.47431352     0.01334609     0.23011433
Ti      2.99780097     4.53839603     0.15627001     0.76425401    -1.04458947    -0.28086407
Ti      2.90025202     9.17504000     4.56067100     0.05058776     0.82647345     0.37669298
Ti      0.01791699     4.71883700     4.63715299    -0.48760167    -1.81493622    -0.54422638
Ti      5.91678603     0.05650999     0.04857302     0.40324554     1.60545809     0.22118283
O       4.43589101     5.54838298     0.98802102    -0.18547354     0.85425526    -0.28889337
O       4.35537102     0.87552799     0.98510801     1.18629587    -0.24979125    -0.68423508
O       1.56674397     5.54578102     0.97323899    -0.00937759    -0.58304311    -1.12981180
O       1.51551602     1.04479301     0.85750099    -0.15629022    -1.71161923    -0.90099227
O       4.60750901     8.30416898     3.90816402    -1.52903819    -0.74667666    -1.32896515
O       4.48658597     3.63909400     3.85528101    -0.62974284     1.52796732    -0.52110341
O       1.48314201     8.28314302     3.69813701     0.53520000     1.31122068     1.45067788
O       1.37969199     3.76599600     3.54142799     0.93477812     1.60793380     1.80026833
O       2.92928898     1.26751498     3.17625002    -0.05697310     0.55315377     0.35937736
O       0.14883301     6.31077002     3.14618900    -2.02861503    -2.86414262     2.09804770
O       5.81933999     1.48730701     3.30161502     0.76060099    -1.01567509    -0.16619077
O       2.98018900     8.09881000     1.55974100     1.01548457    -1.43918941     0.01316122
O       2.94136300     3.15069298     1.36284499    -0.37122424     0.76079074     0.07433268
O       0.27027500     7.91234101     1.41385900    -1.99772244     1.09241663    -1.13968535
O       5.89856000     3.16877201     1.36438702     0.11933934     0.81180093    -0.20392404
