# total energy = -4987.15549604 eV

CRYSTAL
PRIMVEC
        3.72705855     0.00000000     0.00000000
        0.00000000     3.50384494     0.00000000
        0.00000000    -0.00006901     4.98324607
PRIMCOORD
6 1
Ti      1.86352912     1.75188807     2.49162314     0.00000000     0.00000000     0.00000000
Ti      0.00000000     0.00000000     0.00000000     0.00000000     0.00000000     0.00000000
O       1.86352912     0.68283437     0.97116132     0.00000000    -0.49454802     0.19461998
O       1.86352912     2.82094178     4.01208502     0.00000000     0.49454802    -0.19461998
O       0.00000000     1.06902615     3.46278543     0.00000000     0.49459816     0.19547770
O       0.00000000     2.43474999     1.52046085     0.00000000    -0.49459816    -0.19547770
