# total energy = -19515.87959115 eV

CRYSTAL
PRIMVEC
        5.17600016     0.00000000     0.00000000
        0.00000000     5.50899976     0.00000000
        0.00000000     0.00000000     9.26300011
PRIMCOORD
23 1
Ti      1.94632398     3.18518401     3.38513703    -0.13932967    -1.45439981     3.66409384
Ti      3.31605198     2.32232802     5.97503802     0.24438062    -0.76692822    -2.93175135
Ti      4.27451200     2.26168801     1.50087702     0.00058236    -0.93373683    -0.33810945
Ti      0.81372898     3.32078002     7.76699200    -0.34208823     1.41773869     1.74667315
Ti      1.87868698     0.21342200     1.38496900     0.83458425    -1.11946516     0.24005062
Ti      3.34924002     5.26654397     7.85359000     1.35098666     0.07296408     2.70882119
Ti      0.73033202     0.49339503     5.90466099     0.09740062     1.65428567    -3.20196590
Ti      4.66047298     4.81886298     3.49505301    -0.97721908     0.91098975     2.12803731
O       1.72682300     1.64372101     4.68132199     0.82728746     1.77012959     0.20750970
O       3.62151500     3.32898100     4.34244402     0.38431450     0.49729987     0.89523197
O       4.67798902     3.01092198     9.19978200     0.91789600     0.47994955    -0.80560277
O       3.62565301     0.64651299     0.18021798     0.13619961     0.44303852     0.47323511
O       1.63856799     5.00468702     9.07104101    -1.19461905    -1.32171052    -1.00770312
O       4.28446699     0.61532799     4.92938298    -0.36153709     0.15786425    -0.56895269
O       1.04968499     4.66010600     4.58501099     0.42664927    -1.10348498    -0.98333651
O       0.36104102     3.40804400     2.52476102    -1.52586776    -0.71538144    -1.75439855
O       5.16396101     2.34368101     6.53704098    -0.42241775    -1.37623773     0.21632113
O       2.54112402     1.86636302     2.15727700    -0.07650089    -1.09364973    -1.13813575
O       2.55208202     3.80359600     6.96536001    -0.44541139    -1.81924539    -0.09271016
O       5.10193402     0.62854298     2.20930100     1.75793536     0.59765984    -0.67842824
O       5.10133198     4.73009900     6.95996700    -0.98962414    -0.03896123     2.27184251
O       2.40057799     0.99887402     6.99531297    -1.52599092     1.15690506     0.04860107
O       2.88869500     4.26538099     2.22864798     1.02238875     2.58437615    -1.09932262
