# total energy = -4986.91830708 eV

CRYSTAL
PRIMVEC
        3.99568054     0.00000000     0.00000000
        1.71140831     3.61061554     0.00000000
       -2.85358226    -1.80533170     5.24029455
PRIMCOORD
6 1
Ti      1.28345530     2.70810063     1.31007358     0.00089192    -0.00089192     0.00000000
Ti      1.57005157    -0.90281657     3.93022064    -0.00089192     0.00089192     0.00000000
O       0.42789358     0.90264914     0.85360110    -0.00041472    -0.00063763    -2.10304721
O       2.42561315     0.90263478     4.38669318     0.00041472     0.00063763     2.10304721
O      -0.42785758    -0.90262641     3.47374821    -0.00063763    -0.00041472    -2.10304721
O       3.28136424     2.70791029     1.76654607     0.00063763     0.00041472     2.10304721
