# total energy = -19520.01359475 eV

CRYSTAL
PRIMVEC
        5.17575250     0.00000000     0.00000000
        0.00002837     5.50856584     0.00000000
        0.00000000     0.00000000     9.26345890
PRIMCOORD
23 1
Ti      1.84010722     3.35072843     3.41832572     0.01565520    -0.00363014     0.02568970
Ti      3.36389810     2.16311989     5.77029550     0.00002571    -0.01481753     0.00050625
Ti      4.58717162     1.94673182     1.42450399    -0.00913410    -0.00466913     0.01433648
Ti      0.84067978     3.32897270     7.92702912     0.01472368     0.00625987    -0.00984424
Ti      2.04379645     0.47374001     1.26393655    -0.01687904    -0.01541505     0.01505356
Ti      3.15971192     5.17087713     7.91174751     0.01315968     0.01815997    -0.01138613
Ti      0.59697383     0.68535267     5.68068164    -0.00347870     0.00530367    -0.00399292
Ti      4.57733433     4.82668114     3.57549583     0.00748808    -0.00498074     0.00263410
O       1.52366344     1.94776431     4.67415605    -0.01304861     0.00148147    -0.00728342
O       3.58043778     3.50748477     4.50032998     0.00251942     0.00172418     0.00773491
O       0.71650954     2.14706552     0.08491887     0.00075410     0.02554315    -0.00458994
O       3.55885255     0.83461273     0.09513502    -0.00478123    -0.00096339     0.00704868
O       1.67793671     4.72663850     9.13400186    -0.00514941    -0.00540549    -0.02106943
O       4.04797777     0.75725557     4.70501480     0.03568538     0.01947714    -0.00485939
O       1.04805663     4.63861357     4.61940094    -0.00279968    -0.01248245    -0.01522531
O       0.18308038     3.37293252     2.39238466    -0.00462285    -0.02234495     0.00059675
O       4.93303737     2.16167945     6.83275922     0.00748243     0.01317125    -0.01763417
O       2.78828659     2.12327229     2.09092160     0.01105523    -0.01165044     0.01042017
O       2.49252316     3.41786166     7.14641417    -0.00269400     0.00033373     0.00778093
O       0.29044471     0.56131748     2.21084351    -0.03677990    -0.01509110    -0.00362294
O       4.90230537     4.80185305     7.30620091     0.00258010     0.01656022     0.00128195
O       2.30984517     0.74635918     6.77511045    -0.00493395    -0.00438553    -0.00445881
O       2.82071727     4.84299282     2.45381511    -0.00682757     0.00782181     0.01088348
