# total energy = -19517.88859792 eV

CRYSTAL
PRIMVEC
        5.17600016     0.00000000     0.00000000
        0.00000000     5.50899976     0.00000000
        0.00000000     0.00000000     9.26300011
PRIMCOORD
23 1
Ti      1.91961000     3.27414099     3.39512398    -1.66994986    -1.35567867     2.81568451
Ti      3.43356002     2.19517101     5.86602200    -0.50289742     0.86040379    -2.63113991
Ti      4.25318399     2.13396002     1.49068602     0.82219127    -0.24872450    -0.15127142
Ti      0.83534598     3.34176598     7.83820899     0.01310620     1.24713513     0.50223434
Ti      1.87856098     0.21897699     1.32561801     0.18997631     0.46687625    -0.43179894
Ti      3.32799599     5.15723702     7.93304999     0.58410678    -1.20922472     1.03991854
Ti      0.81437997     0.56572202     5.83397402    -0.56168392     0.16189523    -3.17396375
Ti      4.48881799     4.91745998     3.40186802     0.75207624    -0.15510494     2.30373243
O       1.66570800     2.00597300     4.79890099    -0.05242378    -0.59174655     0.79167587
O       3.43780498     3.59980497     4.47934699     1.58245365     0.08285614     0.94944730
O       4.91955801     3.10387799     0.04777301    -0.47524751    -0.44955627     0.11858858
O       3.49231500     0.75165802     0.22259698     0.01557909     0.26289025    -0.28447879
O       1.71032601     4.73806598     8.96059102     0.20037000     0.37339682     0.95046777
O       4.27460799     0.77272198     4.78892700    -0.02745554     0.21694488    -0.15841549
O       1.07568098     4.83303901     4.37089899    -0.64711220     0.02579666     0.65510216
O       0.15408297     3.31988201     2.65860698    -0.54897932    -0.30774137    -0.90172067
O       5.09962702     2.10981102     6.79680599    -0.05149716    -0.81416403     0.10549112
O       2.52993298     1.81153899     2.30757202     0.40404233     0.12702283    -1.18709625
O       2.64370202     3.45034002     7.11575599    -0.03125511    -0.27002841     0.59902098
O       0.12502998     0.66610901     2.18791800     0.29006554     0.25127041    -1.50364982
O       5.16817500     4.78086398     7.02098400    -1.03217669     0.22847628     0.67664904
O       2.52607698     0.72567500     6.75743298    -0.59621925     0.14736180     0.53179278
O       2.79035100     4.51815299     2.33357102     1.34293113     0.94964348    -1.61627035
