# total energy = -4986.66564152 eV

CRYSTAL
PRIMVEC
        4.63603756     0.00000000     0.00000000
       -0.00000795     3.42663665     0.00000000
       -2.31804715    -1.71336315     5.26330751
PRIMCOORD
6 1
Ti     -0.00020021     2.57010367     1.31582657    -0.00221526    -0.00428680     5.73113660
Ti      2.31818244    -0.85683016     3.94748015     0.00221526     0.00428680    -5.73113660
O       0.00004835     0.85665105     0.85734964     0.00101404     0.00253794    -1.58793576
O       2.31793371     0.85662240     4.40595708    -0.00101404    -0.00253794     1.58793576
O      -0.00002075    -0.85664776     3.48900322    -0.00254051    -0.00011570    -1.85071468
O       2.31800276     2.56992109     1.77430355     0.00254051     0.00011570     1.85071468
