# total energy = -4984.02919411 eV

CRYSTAL
PRIMVEC
        3.58697695     0.00000000     0.00000000
        1.68798294     3.16498298     0.00000000
       -2.63751365    -1.58251171     4.73717510
PRIMCOORD
6 1
Ti      1.26590257     2.37385913     1.18429346     0.00041626    -0.00041626     0.00000000
Ti      1.37154354    -0.79138797     3.55288106    -0.00041626     0.00041626     0.00000000
O       0.42203290     0.79124172     0.77164702     0.00075745     0.00071194    -3.18731961
O       2.21541306     0.79122943     3.96552756    -0.00075745    -0.00071194     3.18731961
O      -0.42199881    -0.79122122     3.14023457     0.00071194     0.00075745    -3.18731961
O       3.05944471     2.37369228     1.59693996    -0.00071194    -0.00075745     3.18731961
