# total energy = -19515.02822331 eV

CRYSTAL
PRIMVEC
        5.17600016     0.00000000     0.00000000
        0.00000000     5.50899976     0.00000000
        0.00000000     0.00000000     9.26300011
PRIMCOORD
23 1
Ti      1.86573701     3.13604102     3.31384002    -0.70393437     0.41475355     2.29489143
Ti      3.45687102     2.26748398     5.86503201    -1.37131483     0.78405229    -2.15179843
Ti      4.25586999     2.15820898     1.51637598     1.12690902    -0.77293895    -2.86350499
Ti      0.83806500     3.49064698     7.76439199     1.42447653    -1.31239850     4.08664478
Ti      1.96730898     0.00155599     1.57531299     0.47521049     1.68723180    -3.67791764
Ti      3.27866799     5.27455598     7.87413102     0.89880786    -0.10196716     3.99720815
Ti      0.73193400     0.73533799     6.00954402    -0.13370101    -0.87943485    -4.01319425
Ti      4.38589101     4.88502300     3.30484602     1.68342399    -0.14517739     1.47710343
O       1.80727700     1.90854797     4.78578798    -0.92536017    -0.04846480     0.50563102
O       3.59912699     3.63671498     4.49492300    -0.69943108    -0.34630510     0.22804434
O       5.07281102     3.04518398     0.12742599    -0.15807045    -0.33129345    -1.53116295
O       3.80258300     0.57390098     0.21061498    -0.85255756     0.46616792    -0.32690920
O       1.77973300     4.79917399     8.97581000    -0.48332772    -0.03889695     0.80693691
O       4.21890902     0.85643602     4.88000100     0.29893919     0.02173997    -0.15121229
O       0.87803402     4.76313602     4.21575602     1.47393557    -0.06046980     0.57820892
O       0.12536998     3.31380298     2.52824300     1.15393030    -0.54935753     0.78585257
O       5.01455199     1.99598499     7.00377198    -0.51282111     0.59542040    -0.17861872
O       2.45412998     1.83613398     2.04130600     0.21325046    -1.66256874     0.30395696
O       2.69777203     3.66274299     7.10189102    -0.82435023    -1.56035089    -0.81847680
O       0.29794198     0.53800001     1.97586001    -1.99982509     0.58289347     0.99144603
O       5.12345302     4.81370202     7.11736998    -1.28671882     1.51503647    -1.35299546
O       2.26893599     0.96842601     7.07522800     0.38969788     1.52586082    -0.90624967
O       2.98429002     4.04354201     1.89806000     0.81283168     0.21646820     1.91611611
