# total energy = -19961.17993242 eV

CRYSTAL
PRIMVEC
        7.60600008     0.00000000     0.00000000
        0.00000000     7.60600008     0.00000000
       -1.89786986    -1.89786986     4.85670466
PRIMCOORD
24 1
Ti      3.83349600     6.65666901     1.17428999    -0.83400755    -0.98381011     0.33678533
Ti      3.79369203     2.74345098     1.21829398    -0.29928295     0.88515941    -0.77333747
Ti     -0.08221398     6.71475198     1.16380497     0.75448305    -0.24133849     0.47723678
Ti      0.00490600     2.85757599     1.20092999     0.13420366     0.33689074     1.80022694
Ti      5.65581523     2.85930624     3.63076983     0.24051856     1.04373766     0.04571037
Ti      5.69712725    -0.83052279     3.62909980    -0.06168696    -0.90104241     0.10609713
Ti      1.94896420     2.74840222     3.65402479    -0.85907479    -0.28007243     0.63071112
Ti      1.94690020    -1.02319178     3.61680082    -0.08353774     0.44219571    -0.65822425
O       3.91340901     4.64816099     0.81502398    -0.74081171     0.35468253    -0.28873859
O       3.93005000     0.86671000     0.75227499    -0.42609854     0.76471296     0.23994881
O      -0.05793099     4.80991698     0.90667500     0.37483587     0.46266401    -0.66305201
O      -0.06430001     0.99123800     0.80354999     0.15818847     0.11053485    -0.47792712
O       5.44241625     4.88584322     3.99543583     1.13159023    -1.21246919     0.67564580
O       5.55958720     1.06396822     4.19436181     0.19108729    -0.71710613    -1.59839398
O       2.08813824     4.68848122     4.06962780    -0.84984735     0.03056117    -0.24146499
O       2.08231423     0.86723923     4.02483480    -0.86334462     0.54981416     1.01285253
O       3.74462724     2.76753024     3.27774982     1.13370728     0.14988457    -0.68623437
O       3.76335525    -0.86721975     3.19417781     1.53576291    -0.07849144     0.00482673
O       0.02025024     2.75750122     3.15387281    -1.17500949     0.42120830     1.21676782
O       0.00586821    -0.71490280     3.21932182    -0.65230660    -0.69939097     0.10148611
O       5.70134902     6.67283998     1.67041303     0.18035010     0.09709878     0.04850131
O       5.59357800     2.78317600     1.71019800     1.37172673     0.05273000     0.22158341
O       1.96494102     6.79457900     1.67836000    -1.00068195    -0.74900942    -1.15302707
O       1.86840702     2.75714698     1.61808401     0.63923639     0.16085624    -0.37797982
