# total energy = -19951.30090541 eV

CRYSTAL
PRIMVEC
        5.61769535     0.00000000     0.00000000
        1.18397516     5.86052610     0.00000000
        0.00000000     0.00000000    10.10559141
PRIMCOORD
24 1
Ti      2.73776686     3.47294234     3.74910246     0.32228456    -1.73382920     0.86903165
Ti      4.06390337     2.38758390     6.35648934    -0.32228456     1.73382920    -0.86903165
Ti      5.32725213     2.38758600     1.30365306    -0.68187815    -0.37810169     0.11963810
Ti      1.47441812     3.47294047     8.80193886     0.68187815     0.37810169    -0.11963810
Ti      2.14577942     0.54267951     1.30369358     0.32228456    -1.73382920    -0.86903165
Ti      4.65589084     5.31784690     8.80189834    -0.32228456     1.73382920     0.86903165
Ti      0.88243058     0.54267724     6.35644882     0.68187815     0.37810169     0.11963810
Ti      5.91923967     5.31784917     3.74914298    -0.68187815    -0.37810169    -0.11963810
O       2.19493373     2.06359089     5.15680610     1.30127950     1.56219103    -0.55737475
O       4.60673651     3.79693535     4.94878571    -1.30127950    -1.56219103     0.55737475
O       1.44774698     2.06361449     0.10404274    -0.48480919     0.04698950     0.69594055
O       5.35392331     3.79691180    10.00154878     0.48480919    -0.04698950    -0.69594055
O       4.01474905     0.86667234     0.10400994    -1.30127950    -1.56219103    -0.55737475
O       2.78692119     4.99385390    10.00158159     1.30127950     1.56219103     0.55737475
O       4.76193585     0.86664879     5.15683890     0.48480919    -0.04698950     0.69594055
O       2.03973433     4.99387751     4.94875291    -0.48480919     0.04698950    -0.69594055
O       0.92426461     3.56470412     2.72977245     0.23616723     0.83667765     0.88638686
O       5.87740562     2.29582212     7.37581936    -0.23616723    -0.83667765    -0.88638686
O       3.47676586     2.29576738     2.32305560     0.79102512     0.88083636     0.14376843
O       3.32490437     3.56475886     7.78253604    -0.79102512    -0.88083636    -0.14376843
O       0.33227715     0.63444112     2.32302331     0.23616723     0.83667765    -0.88638686
O       6.46939309     5.22608518     7.78256833    -0.23616723    -0.83667765     0.88638686
O       2.73291691     0.63449580     7.37585159    -0.79102512    -0.88083636     0.14376843
O       4.06875333     5.22603044     2.72974016     0.79102512     0.88083636    -0.14376843
