# total energy = -4985.11807908 eV

CRYSTAL
PRIMVEC
        4.04969935     0.00000000     0.00000000
        0.00000000     3.41668480     0.00000000
        0.00000000    -0.00007718     5.36371208
PRIMCOORD
6 1
Ti      2.02484957     1.70830376     2.68185621     0.00000000     0.00000000     0.00000000
Ti      0.00000000     0.00000000     0.00000000     0.00000000     0.00000000     0.00000000
O       2.02484957     0.66584649     1.04530854    -0.00000000    -0.07081104     1.34819495
O       2.02484957     2.75076107     4.31840382    -0.00000000     0.07081104    -1.34819495
O       0.00000000     1.04242651     3.72716577     0.00000000     0.07148929     1.34865929
O       0.00000000     2.37418100     1.63654665     0.00000000    -0.07148929    -1.34865929
