# total energy = -19516.74894478 eV

CRYSTAL
PRIMVEC
        5.17600016     0.00000000     0.00000000
        0.00000000     5.50899976     0.00000000
        0.00000000     0.00000000     9.26300011
PRIMCOORD
23 1
Ti      1.94646400     3.24179000     3.46270700     0.53619631    -0.86690380     1.53483706
Ti      3.30061498     2.26806698     5.95769301     0.05122231    -0.23539898    -2.54440988
Ti      4.21922197     2.14465400     1.49457002     0.18525474    -0.70643888    -0.36364797
Ti      0.79174399     3.39847298     7.82811700     0.99872508    -0.00358155     1.68370167
Ti      1.87767699     0.09908003     1.38436499    -0.10680315     2.29307777    -1.90953666
Ti      3.43002501     5.23221598     7.93623002    -1.64290570     0.64616860     0.24605158
Ti      0.69927900     0.56305602     5.77121899    -0.70006460     0.76066475    -2.35520902
Ti      4.63122398     4.81531998     3.40662601    -0.68056612     1.04942288     2.16790254
O       1.65615202     1.98966100     4.79504900    -0.08480453     0.55507875     0.08042439
O       3.58644701     3.56474899     4.53202701    -0.10721504    -0.17807364    -0.03618829
O       4.88832702     3.23431299     0.08780199    -0.08982538    -0.39010617    -0.54791694
O       3.19957700     1.06354599     0.08810902     1.07796960     0.01175123     0.34851008
O       1.70765202     4.88911798     8.87954203     0.11767224    -0.82243579     1.19474195
O       4.22429303     0.71862800     4.80415598     1.01870256    -0.48580292    -0.90638773
O       1.16338301     4.77356700     4.42136303    -0.63611018     0.03609213    -0.36621650
O       0.16520803     3.16504300     2.75421000     0.16473321    -0.48291223    -1.30571697
O       5.07533001     2.24105200     6.63773801     0.43908159    -0.89091329     1.19784244
O       2.65320800     1.58557199     2.48678001     0.06513584     1.42117986    -1.15743702
O       2.73936298     3.60950802     7.11220701    -1.11426742    -1.29857341     0.71475640
O       0.09849200     0.57337202     2.00451199     0.21931698    -0.00815580    -0.65390454
O       0.00782600     4.76274998     7.04567800    -1.53093078     1.65784305    -0.20863121
O       2.42347099     0.61896201     6.54066198     1.37353627     0.08030175     2.62284373
O       3.01341202     4.52266999     2.18820000     0.44594618    -2.14228483     0.56359142
