# total energy = -4988.78249765 eV

CRYSTAL
PRIMVEC
        4.05144265     0.00000000     0.00000000
        0.80225745     3.97121777     0.00000000
       -2.42688696    -1.98563908     5.19685101
PRIMCOORD
6 1
Ti      0.60155343     2.97856519     1.29921289     0.00011313    -0.00011313     0.00000000
Ti      1.82525972    -0.99298650     3.89763829    -0.00011313     0.00011313     0.00000000
O       0.20060681     0.99279864     0.84652463    -0.00059830    -0.00118579    -0.98878057
O       2.22620621     0.99277995     4.35032661     0.00059830     0.00118579     0.98878057
O      -0.20058022    -0.99277688     3.44495002    -0.00118579    -0.00059830    -0.98878057
O       2.62739312     2.97835537     1.75190116     0.00118579     0.00059830     0.98878057
