# total energy = -19075.58125811 eV

CRYSTAL
PRIMVEC
        7.60600008     0.00000000     0.00000000
        0.00000000     7.60600008     0.00000000
       -1.89786986    -1.89786986     4.85670466
PRIMCOORD
22 1
Ti      3.84684402     6.60984301     1.21780201     0.98744205    -1.11280626    -0.51939106
Ti      3.78738000     2.78622601     1.21270899    -0.80848523     0.94211143     0.03559437
Ti      0.17268699     6.79898202     1.01104600    -0.31209579    -0.62542699     2.04260544
Ti      0.00442599     2.92513600     1.08541599     0.39676996     0.01933959     0.45574363
Ti      5.61802721     2.96337625     3.55170779     0.62349018    -1.03761020     0.51924836
Ti      6.01249625    -0.99686977     3.61676182     0.73010564     1.74454299     0.09928756
Ti      1.81920322     2.72689424     3.63818482    -0.62085325     0.22410258     0.32114427
Ti      1.56866621    -1.09090075     3.84459083    -0.75181810     0.16280386     0.27604942
O       3.30904499     4.66280401     0.79728601     1.60027911     1.16898128    -0.33693420
O       3.91614798     0.85881700     0.83975000    -0.04843266     0.47701618     1.17092709
O       0.16738998     4.83511899     0.68749698    -0.16057728    -0.00930123     0.27043902
O       7.25672299     0.98829101     0.69507199     0.93527306     0.67159476     0.70235391
O       5.49873124     4.85368121     4.05302179    -0.27095838    -0.90899689    -1.81669255
O       5.88223324     0.93451623     3.99593579    -0.34552451     0.25232919    -0.18565249
O       2.16947723     4.71270225     4.16655979    -0.66836546    -0.49802338    -0.36054207
O       1.86581823     0.85794825     4.12460783    -0.33647988    -0.07840916    -0.09109422
O       3.69725423     2.67145223     3.24079880     1.10311679     0.18588209     0.25849109
O      -0.05704377     3.00492624     3.17280883     0.39276495    -0.11515307    -0.48335832
O       5.83197002     6.61756101     1.76308101    -0.93658047    -0.38592710    -0.14316628
O       5.59635602     3.15758298     1.63161200     0.71027651    -0.23572397    -0.43981641
O       2.23600503    -0.80371700     2.21445899    -0.46149416    -0.27863621    -2.15038124
O       1.90304501     2.73405898     1.60125898    -1.75785257    -0.56268974     0.37514466
