# total energy = -19517.88805532 eV

CRYSTAL
PRIMVEC
        5.93400000     0.00000000     0.00000000
        0.00000000     9.29699974     0.00000000
        0.00000000     0.00000000     4.64899994
PRIMCOORD
23 1
Ti      4.49050400     6.99736401     2.27797100     1.00288179     0.70877524    -0.16043047
Ti      4.40345202     2.28459001     2.36017001     1.85248309    -0.19066948     0.16694385
Ti      1.50124501     6.95738800     2.26503199    -1.10914269     0.96461219    -0.13380206
Ti      1.49691401     2.32587202     2.27057300    -1.72762101    -0.26240689     0.33798886
Ti      2.90620500     4.52387202     0.09222501     0.80514691    -0.51246347    -0.83017121
Ti      3.00300300     0.07782800     0.02225503     0.05625216    -0.46808133     0.43397049
Ti      5.90699799     4.70220501     0.08436900    -0.56033358    -0.94915445    -0.67792019
Ti      0.03478499     9.25656801     4.50798902    -0.23434431     0.36062358     0.37475822
O       4.44355497     5.52717001     0.96342000    -0.74159384     0.78114437     0.25109171
O       4.43619899     0.95858099     0.86502298    -0.07473120     0.07565551     0.60634477
O       1.49320897     5.48009001     0.98721599     0.59072223     0.73538360     0.09598137
O       1.47317898     0.94003698     0.88088099    -0.03863212     0.15229575     0.36929643
O       4.41400201     8.42956800     3.74280899     0.10365175    -0.98074381    -0.56197343
O       4.50043899     3.74060200     3.83467702    -0.99915060     0.28579159    -0.50790876
O       1.41122100     8.49222502     3.57719799     0.91655285    -0.68915078     0.54048902
O       1.39536601     3.66190498     3.78812201     1.30347420     0.85187416     0.24175244
O       3.01321400     1.31527101     3.27736902    -0.55182014     1.62061243    -1.27786034
O       0.03245598     6.21670199     3.27139900    -0.12608386    -1.11571906     0.57017705
O       5.89376898     1.43536800     3.22888802     0.34174679    -0.08483821    -0.24345528
O       2.98682499     7.84039401     1.39448800    -0.06868010    -0.32295536     0.30327279
O       3.02587399     3.25592999     1.39248400    -0.82166754    -0.68439681     1.08805321
O       0.04442898     7.84639398     1.35942699    -0.33880493     0.21641086    -0.34292075
O       5.90709901     3.35747100     1.57113900     0.41969392    -0.49259964    -0.64367849
