# total energy = -19935.95408536 eV

CRYSTAL
PRIMVEC
        6.57579331     0.00000000     0.00000000
        0.00003058     5.72615419     0.00000000
        0.00000000     0.00000000    10.80736859
PRIMCOORD
24 1
Ti      2.38342691     3.39331355     4.00945680     0.31565805    -0.67326881     0.67998839
Ti      4.19239705     2.33284039     6.79791222    -0.31565805     0.67326881    -0.67998839
Ti      5.67120963     2.33284224     1.39418453     0.31575524     0.67228562    -0.68020848
Ti      0.90461432     3.39331188     9.41318462    -0.31575524    -0.67228562     0.68020848
Ti      2.38341186     0.53023658     1.39422786     0.31565805    -0.67326881    -0.67998839
Ti      4.19241209     5.19591755     9.41314128    -0.31565805     0.67326881     0.67998839
Ti      0.90459928     0.53023449     6.79786888    -0.31575524    -0.67228562    -0.68020848
Ti      5.67122467     5.19591958     4.00950014     0.31575524     0.67228562     0.68020848
O       2.08129089     2.01627615     5.51491763     0.96152403     1.21688635    -0.65446478
O       4.49453306     3.70987780     5.29245139    -0.96152403    -1.21688635     0.65446478
O       1.20666573     2.01629929     0.11126793    -0.96115405     1.21753041    -0.65531042
O       5.36915828     3.70985472    10.69610078     0.96115405    -1.21753041     0.65531042
O       4.49451802     0.84680064     0.11123285    -0.96152403    -1.21688635    -0.65446478
O       2.08130593     4.87935330    10.69613586     0.96152403     1.21688635     0.65446478
O       5.36914318     0.84677756     5.51495272     0.96115405    -1.21753041    -0.65531042
O       1.20668065     4.87937644     5.29241630    -0.96115405     1.21753041     0.65531042
O       0.23893226     3.48297160     2.91933998    -0.70564312     0.03796981     0.07845930
O       6.33689169     2.24318234     7.88802903     0.70564312    -0.03796981    -0.07845930
O       3.52683550     2.24312912     2.48437891    -0.70620980    -0.03791402    -0.07861074
O       3.04898845     3.48302482     8.32298993     0.70620980     0.03791402     0.07861074
O       0.23891716     0.61989445     2.48434437    -0.70564312     0.03796981    -0.07845930
O       6.33690679     5.10625950     8.32302446     0.70564312    -0.03796981     0.07845930
O       3.04897335     0.61994766     7.88806351     0.70620980     0.03791402    -0.07861074
O       3.52685060     5.10620628     2.91930545    -0.70620980    -0.03791402     0.07861074
