# total energy = -19960.74278229 eV

CRYSTAL
PRIMVEC
        7.60600008     0.00000000     0.00000000
        0.00000000     7.60600008     0.00000000
       -1.89786986    -1.89786986     4.85670466
PRIMCOORD
24 1
Ti      3.80184702     6.47430098     1.26201397     0.86420414     0.57632867     0.25617453
Ti      3.77200502     2.78273598     1.22038402     0.59220884    -0.61139493     0.59970618
Ti      0.05837201     6.74125699     1.29454901    -1.03703248    -0.66042820    -1.60668965
Ti      0.00403101     2.92816897     1.12331498    -0.15924313     0.65020035    -0.84052865
Ti      5.69601121     3.02357820     3.57409379    -1.76835347    -0.19931739    -0.04598651
Ti      5.74526121    -0.87565780     3.66972479    -0.79954730     0.11791855    -0.43366376
Ti      1.77035625     2.79636521     3.61163881     1.52093998    -0.47595405    -0.43449191
Ti      1.90117320    -0.99725077     3.64473080     0.69369032     0.05026046     1.56564505
O       3.78454102     4.66811002     0.81528497    -0.17931420    -0.41524951     0.05894745
O       3.78894202     0.84678102     0.78179901    -0.06579095    -0.72851464    -0.14340153
O       0.18414802     4.91463602     0.59492599    -0.45952984    -0.79164399     2.65492314
O       0.02336402     1.05054199     0.71399801     0.05701552    -0.50374023     1.44732541
O       5.77159625     4.85322924     4.08285284     0.15395437     0.67757798    -0.17408432
O       5.74831425     1.14553121     4.05008481    -0.44486246    -1.85609394    -0.35737576
O       1.85365621     4.51721523     4.15212579    -0.54833526     2.66293058    -0.56819833
O       1.91961323     0.85729424     4.09229680    -0.15491262     0.08666601    -0.69750018
O       3.70883724     2.93311922     3.28047783     0.31852663    -0.37816956    -0.55648026
O       3.85569721    -1.11806676     3.26303483    -1.30936331     0.56865187    -0.08295256
O      -0.13487675     2.87913620     2.99292783     2.54663723     0.20676254     1.54143374
O      -0.03066778    -0.80797677     3.23212680     1.82303392    -0.14373912     0.40492422
O       5.77260502     6.52634202     1.75033599    -0.50048419     0.24238441    -1.59648133
O       5.61908498     2.82035102     1.63111701     0.41806461     0.29655141    -1.24206492
O       1.90084998     6.45305102     1.71388700     0.29724072     0.60044306    -0.00997100
O       1.93884300     2.79293900     1.60029101    -1.85874707     0.02756969     0.26079095
