# total energy = -19941.18857523 eV

CRYSTAL
PRIMVEC
        4.86730368     0.00000000     0.00000000
        1.51991173     4.95229235     0.00000000
        0.00000000     0.00000000     8.81331661
PRIMCOORD
24 1
Ti      2.66486174     2.93472388     3.26967760     3.11289617    -2.15741295     0.94665457
Ti      3.72235359     2.01756858     5.54363906    -3.11289617     2.15741295    -0.94665457
Ti      4.81694895     2.01757028     1.13694551    -5.80403434     0.53412451     2.24686192
Ti      1.57026646     2.93472237     7.67637124     5.80403434    -0.53412451    -2.24686192
Ti      1.90490599     0.45857779     1.13698085     3.11311960    -2.15794362    -0.94593234
Ti      4.48230936     4.49371481     7.67633591    -3.11311960     2.15794362     0.94593234
Ti      0.81031061     0.45857594     5.54360372     5.80377440    -0.53525065     2.24366192
Ti      5.57690474     4.49371666     3.26971294    -5.80377440     0.53525065    -2.24366192
O       2.07571908     1.74378636     4.49736801    -1.46335548    -0.39896414    -0.98372243
O       4.31149626     3.20850615     4.31594865     1.46335548     0.39896414     0.98372243
O       1.42834083     1.74380634     0.09073805     1.58290385    -0.91818087    -0.68343393
O       4.95887456     3.20848621     8.72257836    -1.58290385     0.91818087     0.68343393
O       3.55154048     0.73235991     0.09070946     1.46336242     0.39857976    -0.98351649
O       2.83567485     4.21993260     8.72260695    -1.46336242    -0.39857976     0.98351649
O       4.19891878     0.73233998     4.49739660    -1.58325892     0.91850381    -0.68331591
O       2.18829651     4.21995259     4.31592006     1.58325892    -0.91850381     0.68331591
O       1.10133688     3.01226498     2.38069669    -0.48638348    -2.04226399    -2.33219661
O       5.28587846     1.94002753     6.43261997     0.48638348     2.04226399     2.33219661
O       3.20590297     1.93998136     2.02598967     1.62683862    -2.50037355    -2.80229600
O       3.18131237     3.01231115     6.78732684    -1.62683862     2.50037355     2.80229600
O       0.34138105     0.53611875     2.02596152    -0.48658274    -2.04256790     2.33273088
O       6.04583423     4.41617377     6.78735499     0.48658274     2.04256790    -2.33273088
O       2.42135659     0.53616492     6.43264807    -1.62736929     2.50055867    -2.80245515
O       3.96585874     4.41612759     2.38066854     1.62736929    -2.50055867     2.80245515
