# total energy = -19960.56940284 eV

CRYSTAL
PRIMVEC
        5.93400000     0.00000000     0.00000000
        0.00000000     9.29699974     0.00000000
        0.00000000     0.00000000     4.64899994
PRIMCOORD
24 1
Ti      4.48372403     6.99004602     2.20463201    -0.13286849     0.75610490     0.10366666
Ti      4.42297601     2.36933801     2.35425799     0.34443822     0.53568209    -0.60196695
Ti      1.47771800     6.85440598     2.36715399    -0.11211505     1.18853504     0.37059072
Ti      1.49199801     2.27602199     2.43280001    -0.26898737     0.55249325    -0.87440191
Ti      2.95340798     4.70563900     4.64259399     1.51605180     0.36311652     0.10319024
Ti      2.91353902     0.04943002     0.05952498     0.63360284    -2.06204967    -0.11605064
Ti      0.06641799     4.58207098     4.60673001    -1.68955402     0.35832578     0.37222800
Ti      5.90121599     0.04398299     4.63728798    -0.78601995    -1.66104022    -0.29609452
O       4.46407800     5.57058800     0.83275401    -0.42610343    -0.26668469     0.24386537
O       4.50325802     0.90949202     1.09714399    -0.27674053    -0.40770924    -1.20659011
O       1.43800198     5.61901000     0.78378803     0.57756846    -0.06525565     0.49221500
O       1.46568901     0.74379498     0.92449398    -0.03498810     1.61785878     1.26771631
O       4.50553602     8.40851199     3.67760699     0.17494050     0.62948136     0.65436040
O       4.41119600     3.87568598     3.64031201    -0.34095335    -1.16902216     0.24123693
O       1.48512002     8.33916098     3.67460301    -0.09827377     0.57874062     0.46509165
O       1.49299101     3.79906101     3.72059301     0.72429237    -0.93964239    -0.57780911
O       3.03553502     6.14472600     3.22908101    -0.82954309    -0.68693628    -0.09461303
O       2.90879098     1.44171500     3.42730801     0.50372480     1.14950517    -1.45260003
O       5.89354800     5.86090602     3.12333600     0.83891476     1.71364989    -0.64115135
O       5.91284403     1.54862002     3.29533797     0.10215125    -0.59874253     0.63518690
O       2.99992102     7.87363201     1.33547002    -0.04835681    -0.59485450     0.49573330
O       2.91348700     3.11413102     1.35580900     0.17088561     0.38642538     0.41505334
O       0.03080103     7.92024501     1.42052600    -0.01188390    -0.82741241     0.12469289
O       0.07291898     3.26887001     1.44793601    -0.53018275    -0.55056904    -0.12355029
