# total energy = -19074.88081079 eV

CRYSTAL
PRIMVEC
        5.17600016     0.00000000     0.00000000
        0.00000000     5.50899976     0.00000000
        0.00000000     0.00000000     9.26300011
PRIMCOORD
22 1
Ti      1.91973499     3.36937299     3.25037701    -0.73376483     0.02342456     0.63334650
Ti      3.52306099     2.23450100     5.85517302     0.72965004     0.26623037     1.01993720
Ti      4.37668200     2.25943101     1.29529599     1.08339308     0.00371653    -2.66160981
Ti      0.68307501     3.33794600     8.11657802     0.08249130    -1.00158621     1.17951767
Ti      1.82058099     0.49825901     1.29536198     0.19974805     0.71814383    -2.74980999
Ti      3.24231002     5.06323598     7.91366400     0.27443168    -0.18360486     1.53029931
Ti      0.53471303     0.16214901     6.04040199     1.10741157     1.57927113    -0.84977459
Ti      4.50453800     5.01456802     3.41038201     0.34089858    -0.18549642     0.55348801
O       3.47307702     3.50692500     4.40653903    -0.36791291    -0.24894484     1.21512232
O       0.82341700     2.00946901     0.27737402     0.54466912     0.12132809    -0.91670480
O       4.21799698     3.77730902     9.05933598     0.61442472    -0.42611757     0.03774021
O       3.54161098     0.87499601     0.18545001    -0.66711101     0.10570195    -0.75698910
O       1.73913701     4.77166498     9.06564202    -1.50866013     0.06071302     0.46776637
O       4.62243202     1.07747801     4.60699798    -0.75529269    -1.33800772     0.67024288
O       0.84215199     4.51047902     4.50714001     0.21330085    -0.27164152     0.99089941
O       0.26605699     3.57399599     2.30982102    -0.74480181    -0.10770689     0.42515109
O       5.12885401     1.86091101     6.88370399    -0.43996836     0.40989467     0.14713452
O       2.71366602     1.97612100     2.22456099    -0.23677683     0.27254218     1.07401447
O       2.43233598     3.30312699     7.25287201     0.13138291     0.34317041    -1.73836977
O       0.15855002     0.72806900     2.16712102    -0.34932229    -0.40283725     0.72487113
O       2.39164299     0.75715401     6.43894998    -0.30590868    -0.97981101    -0.05449301
O       2.72364699     4.77282202     2.49187302     0.78771791     1.24161780    -0.94178052
