# total energy = -19073.09399446 eV

CRYSTAL
PRIMVEC
        5.93400000     0.00000000     0.00000000
        0.00000000     9.29699974     0.00000000
        0.00000000     0.00000000     4.64899994
PRIMCOORD
22 1
Ti      4.43556900     6.75602701     2.47019602    -1.96643211     2.61762387    -1.87653448
Ti      4.51141201     2.42706400     2.03265602    -0.52093140     0.84691810     0.85315714
Ti      1.43127201     7.07889298     2.46353500     1.84661351     2.40491669    -0.33001150
Ti      1.64489398     2.25389302     2.17931802    -0.39158944     2.01823805     0.54856152
Ti      3.02062301     4.45974600     4.47865001    -0.76914811     0.60284678    -0.56377860
Ti      2.94274601     0.18202099     0.16738601     1.54488056    -1.75385733    -0.43520951
Ti      5.84250102     4.65890699     4.55115200     0.85018211    -0.55878397     0.63580422
Ti      5.93042298     9.11484598     0.08787999    -1.37619171    -1.88555108    -0.31231690
O       4.40564900     5.42394902     0.89348499    -0.63073889     1.01880129     1.37612126
O       4.76417199     1.00158601     1.01867700    -1.37951100    -0.77231468    -0.92671823
O       1.27386299     0.96245202     0.92705800     0.69730478    -0.25973577    -0.04230315
O       4.25308403     8.29670202     4.00155200     0.97988943     1.35068918     0.03780269
O       4.53759803     3.86838598     3.49187102    -0.42138417    -0.23682826    -0.38272865
O       1.57946698     8.42894098     3.89481399    -0.78042369     0.25000285     0.03498630
O       1.41230402     3.72385000     3.77114198     0.13729490     0.48896332    -1.21748105
O       2.86393897     6.18328699     3.30117999    -0.41046443    -1.97993272     0.14056458
O       2.90878601     1.43447300     3.17383401     0.82707869    -0.19196300     0.74368595
O       5.88415299     6.37343498     3.49320100     1.39732104    -1.50183925     0.45711840
O       3.05041098     8.12107301     1.74166097    -1.29928921    -0.92511643    -1.14238270
O       2.96454002     3.01981999     0.99584099     0.28161355    -0.00126344     1.07770657
O       5.79778898     8.02096702     1.57108598     0.99502475    -1.47618349     0.39431970
O       0.01291103     3.31408101     1.24935399     0.38890084    -0.05563072     0.92963643
