# total energy = -4920.07974615 eV

CRYSTAL
PRIMVEC
        6.27519455     0.00000000     0.00000000
       -0.00000776     2.09173152     0.00000000
       -3.13763721    -1.04600187     7.11870605
PRIMCOORD
6 1
Ti     -0.00026856     1.56884852     1.77967608    -0.03823823    -0.02477465    74.31153903
Ti      3.13781796    -0.52311893     5.33902892     0.03823823     0.02477465   -74.31153903
O       0.00006625     0.52291021     1.15957886     0.03850923     0.02405088   -71.54343537
O       3.13748298     0.52281933     5.95912620    -0.03850923    -0.02405088    71.54343537
O      -0.00002879    -0.52299805     4.71893170    -0.00125316     0.00000257    -0.74660904
O       3.13757790     1.56872753     2.39977335     0.00125316    -0.00000257     0.74660904
