# total energy = -19073.96014885 eV

CRYSTAL
PRIMVEC
        7.60600008     0.00000000     0.00000000
        0.00000000     7.60600008     0.00000000
       -1.89786986    -1.89786986     4.85670466
PRIMCOORD
22 1
Ti      3.59210100     6.66338702     1.38884802     1.35520198    -0.84778044    -2.04700408
Ti      3.95034199     2.91454203     1.25624398     0.77901189    -0.05197796    -0.82136801
Ti     -0.01283699     6.55344701     1.01805702    -1.27906619    -0.86756818     0.49768477
Ti      0.22745901     2.64509502     1.01373898    -0.19479328     2.13075960     1.53373122
Ti      5.89564920     2.83432124     3.52746380     0.87613535     0.46888892    -0.01949951
Ti      5.76969825    -0.95029375     3.63441084     0.37780138    -0.54792928    -2.02345457
Ti      2.01309620     2.97798122     3.68900881    -0.75075649    -0.92488297    -0.20454650
Ti      1.20430122    -0.87787775     3.95713080     0.19310200     0.54143159    -2.48248870
O       3.49577402     4.67855502     0.95039202     0.55213252     2.01893457    -0.79272719
O       4.00153301     0.95216498     0.63004298    -0.18335520    -0.68092273     3.61080360
O       0.15910698     4.61092400     0.61675000    -0.15840598     1.65225064    -0.14390495
O       7.16130498     0.97004402     0.65752200     0.90377446    -1.23814115     0.24734202
O      -1.46851079     4.83190525     4.00255781    -0.73862936    -0.41213308     0.64484037
O      -1.50256075     0.89656522     3.88173384    -0.16441131     0.38957087    -0.10226155
O       1.80198321     4.74692922     4.20060980    -0.47843851     0.41799751     0.41389300
O       1.84393120     0.95239924     4.04789179    -0.49440584     0.46025180     0.17699352
O       3.90324420     3.09638723     3.36259582     0.87489248    -0.55628177    -0.66393364
O       0.08722222     3.20339523     3.07849680     0.29196301    -1.86692678    -0.86078277
O       5.52962100     6.46559501     1.56141400     0.84982807     0.25477533     1.57706410
O       5.82002401     2.92875297     1.31279700    -0.28644208     0.04481537     1.78272286
O       1.66632698     6.60780198     2.08840701     0.23510922     0.34500361    -0.69019542
O       2.13037199     2.63688500     1.67497998    -2.56024840    -0.73013495     0.36709170
