# total energy = -19957.04586011 eV

CRYSTAL
PRIMVEC
        7.60600008     0.00000000     0.00000000
        0.00000000     7.60600008     0.00000000
       -1.89786986    -1.89786986     4.85670466
PRIMCOORD
24 1
Ti      3.78351801     6.78886500     1.30489998    -0.16755911    -1.25125559    -0.87660715
Ti      3.72999300     2.93461901     1.08206101     2.47949388     1.46646394     1.81232038
Ti     -0.03612100     6.42421102     1.16826398     0.10846768    -0.90165330    -0.71722209
Ti      0.21796398     2.69610300     1.13434800    -5.32192944    -0.09738571    -1.78252360
Ti      5.76883124     2.87593722     3.56070883     0.30799770    -2.42545492    -1.13545640
Ti      5.67366422    -1.09554677     3.63672281    -1.75745996     0.97045631    -0.19960844
Ti      1.95140720     2.97802223     3.66527383     0.27196445     2.80793520     1.16965491
Ti      1.67846821    -0.81079977     3.71121584     1.66512801    -4.07999487    -1.36402524
O       3.71211898     4.87633603     0.68510700     0.17458517    -2.28694980     1.03383145
O       3.64142201     1.04028701     0.78646799    -0.32237995     0.93025786     1.39211147
O      -0.00911301     4.50487699     0.71663199     0.02439438     2.82963378    -0.13409953
O       0.23247799     0.84807798     0.63753502    -0.29805833    -1.04544719     2.45008224
O       5.59009824     4.59251022     4.01397883     0.84010853     2.74866148     2.52793013
O       5.96238925     0.80056522     3.88707181    -0.24572273     0.69522218     0.58914305
O       1.91127922     4.87885422     4.23145084     0.01618433     0.24898778    -0.30652395
O       1.86959725     0.98391223     4.05996280    -0.28452738     1.61163722    -0.63954364
O       3.87427524     3.34278723     3.53059579    -2.92836649    -2.94109165    -2.73412909
O       3.77057920    -1.00092977     3.57320080    -0.34431635     0.81900825    -2.01553865
O      -0.03367880     3.28757420     3.37062482     1.64023201    -1.82023990    -1.11855319
O      -0.08536677     6.24893524     3.32348983     2.13695853     1.11967625    -1.92066105
O       5.65152497     6.40030300     1.59167902     0.90795714     0.85046339     0.38324338
O       5.78964701     2.83564699     1.52587302    -2.06925493    -0.60180189     0.75510191
O       1.96947199     6.48079399     1.58478098    -1.97891610     0.74943443     1.57797196
O       1.80196898     3.06329603     1.63886602     5.14501948    -0.39656273     1.25310087
