# total energy = -4985.92188277 eV

CRYSTAL
PRIMVEC
        3.93245535     0.00000000     0.00000000
       -0.00000733     3.21746329     0.00000000
       -1.96625391    -1.60876841     4.60852826
PRIMCOORD
6 1
Ti     -0.00017068     2.41321738     1.15213219    -0.00279890    -0.00909631     7.73016645
Ti      1.96636479    -0.80452270     3.45639622     0.00279890     0.00909631    -7.73016645
O       0.00004057     0.80435905     0.75069165     0.00230011     0.00430017    -1.33265134
O       1.96615345     0.80433553     3.85783681    -0.00230011    -0.00430017     1.33265134
O      -0.00001902    -0.80435173     3.05495568    -0.00016609    -0.00047334     1.19661217
O       1.96621293     2.41304631     1.55357273     0.00016609     0.00047334    -1.19661217
