# total energy = -19894.39390744 eV

CRYSTAL
PRIMVEC
        6.90888948     0.00000000     0.00000000
        3.46033423     6.48805643     0.00000000
        0.00000000     0.00000000    12.79592484
PRIMCOORD
24 1
Ti      4.55473103     3.84481623     4.74719687    -0.27401131    -1.88573158     0.19905385
Ti      5.81449286     2.64324036     8.04872810     0.27401131     1.88573158    -0.19905385
Ti      7.36821571     2.64324267     1.65071449    -0.09536996    -1.50106483     0.50991679
Ti      3.00100840     3.84481422    11.14521055     0.09536996     1.50106483    -0.50991679
Ti      2.82456418     0.60078824     1.65076582    -0.27401131    -1.88573158    -0.19905385
Ti      7.54465984     5.88726860    11.14515929     0.27401131     1.88573158     0.19905385
Ti      1.27084122     0.60078574     8.04867678     0.09536996     1.50106483     0.50991679
Ti      9.09838279     5.88727103     4.74724813    -0.09536996    -1.50106483    -0.50991679
O       3.40514972     2.28455501     6.52966253     1.69485949     1.84586815    -0.82691516
O       6.96407426     4.20350163     6.26626245    -1.69485949    -1.84586815     0.82691516
O       2.48623451     2.28458113     0.13174122     0.19520491    -1.22546870     1.84576659
O       7.88298955     4.20347556    12.66418334    -0.19520491     1.22546870    -1.84576659
O       5.23390728     0.95947338     0.13169970    -1.69485949    -1.84586815    -0.82691516
O       5.13531668     5.52858319    12.66422487     1.69485949     1.84586815     0.82691516
O       6.15282256     0.95944732     6.52970399    -0.19520491     1.22546870     1.84576659
O       4.21640135     5.52860934     6.26622092     0.19520491    -1.22546870    -1.84576659
O       2.35578734     3.94640366     3.45649853     0.61017237     3.22510224     2.99106929
O       8.01343663     2.54165298     9.33942638    -0.61017237    -3.22510224    -2.99106929
O       5.06100511     2.54159238     2.94150460     0.37270288     2.18702024     2.16621512
O       5.30821887     3.94646426     9.85442011    -0.37270288    -2.18702024    -2.16621512
O       0.62562036     0.70237542     2.94146375     0.61017237     3.22510224    -2.99106929
O       9.74360360     5.78568116     9.85446095    -0.61017237    -3.22510224     2.99106929
O       3.57805189     0.70243601     9.33946715    -0.37270288    -2.18702024     2.16621512
O       6.79117207     5.78562056     3.45645769     0.37270288     2.18702024    -2.16621512
