# total energy = -19070.89096133 eV

CRYSTAL
PRIMVEC
        7.60600008     0.00000000     0.00000000
        0.00000000     7.60600008     0.00000000
       -1.89786986    -1.89786986     4.85670466
PRIMCOORD
22 1
Ti      3.89845801     6.46208000     1.27922102    -0.21021502     3.28056096     2.00040616
Ti      3.77805299     2.72012098     0.95153002     0.67906793    -1.17978403    -1.28587756
Ti     -0.23993600     6.49574197     1.09066199     0.34003006     0.30066312    -0.93820978
Ti     -0.12642902     3.02369198     1.19311197     0.44692397     0.91268257     1.85960016
Ti      5.67330924     2.71401322     3.41553180    -0.04860338     3.09989076     0.24702603
Ti     -1.20233580    -0.46199476     4.09620181     0.35376464    -1.26004850    -1.84208708
Ti      1.92635622     2.96548825     3.74449479    -2.04558072    -2.39069360    -0.40891046
Ti      1.57963722    -1.05484680     3.84014881     2.13765736     1.28775575    -0.70337618
O       3.84354798     4.74554098     0.78103699    -0.28150685    -1.74892184     0.01477614
O       4.28123901     0.81505102     0.94339900    -1.69752007     0.45542096    -0.36351453
O       0.44110702     4.77838802     0.90611200    -0.01054436    -0.39883995     0.65220427
O       7.21469801     0.95995298     0.54380302     0.53163440    -2.43716167     1.75482432
O       4.87846221     4.19937624     4.14347380     0.81629522     0.67887690     0.72509558
O       5.38681025     1.04180824     4.19740283    -1.50316105     1.91560343    -3.77005959
O       2.05451723     4.68067824     4.29940884    -0.28273404     2.20897721    -1.66606570
O       2.36780022     0.77886721     3.95816079    -1.61873964     0.72985470     0.11129538
O       3.34245925     3.01155223     2.67393280    -0.17328110    -0.36260847     1.50120779
O      -0.07339678     3.28974224     3.28426282     0.89545514    -1.66878541    -0.90604295
O       5.85388098     6.53147901     2.10514600    -0.73434564    -0.04426670     0.90961138
O       5.61933899     3.17267802     1.39354701     1.03462952    -1.00346568     1.96124259
O       2.09639299     6.77846799     2.01966101     0.18243218    -1.32491695    -0.00993732
O       1.77666197     2.48448798     0.43987197     1.18834170    -1.05079328     0.15679159
