# total energy = -19077.75348631 eV

CRYSTAL
PRIMVEC
        7.60629642    -0.00000847    -0.00005503
       -0.00000847     7.60629642    -0.00005503
       -1.90157093    -1.90157093     4.85369047
PRIMCOORD
22 1
Ti      3.80304876     6.66496724     1.15033035     0.00005116    -0.02192586     0.02621986
Ti      3.80298268     2.84568764     1.21230423    -0.00009976     0.03437258     0.01615373
Ti     -0.00009566     6.66498401     1.15030862     0.00018461    -0.02211124     0.02637387
Ti     -0.00016046     2.84570046     1.21234124     0.00001080     0.03451579     0.01593005
Ti      5.70489126     2.84893524     3.63120720     0.00018178     0.00018589    -0.03860590
Ti      5.70481131    -0.94163287     3.64228298    -0.00003702    -0.00493961     0.03967342
Ti      1.90176051     2.84895311     3.63127104     0.00001183     0.00000051    -0.03889901
Ti      1.90164218    -0.94164113     3.64234312    -0.00003831    -0.00473263     0.03938469
O       3.80319455     4.75753029     0.78640488     0.00003162    -0.00264052    -0.06478205
O       3.80320701     0.94208948     0.82763991    -0.00006119    -0.00656017     0.06065132
O       0.00004450     4.75755991     0.78640614    -0.00001183    -0.00366100    -0.06473192
O       0.00005297     0.94204650     0.82764190    -0.00002854    -0.00536024     0.06052225
O       5.70464820     4.76851205     4.00677320    -0.00004268     0.01195743    -0.00801027
O       5.70465478     0.93245646     4.04207054    -0.00014527     0.00156400     0.04550700
O       1.90154145     4.76852917     4.00687288    -0.00001723     0.01162448    -0.00804216
O       1.90153745     0.93245684     4.04211153    -0.00012521     0.00181006     0.04522701
O       3.80315245     2.85392481     3.22548258    -0.00016301    -0.00369056    -0.02648392
O       0.00000618     2.85392363     3.22551575     0.00017355    -0.00367488    -0.02654896
O       5.70469479     6.65593964     1.75048960    -0.00016044     0.00220961    -0.00106675
O       5.70472257     2.85061212     1.62885252     0.00007328    -0.01058626    -0.04881781
O       1.90154744     6.65592976     1.75052928     0.00027279     0.00221732    -0.00094437
O       1.90156745     2.85062356     1.62888857    -0.00006068    -0.01057444    -0.04870957
