# total energy = -4976.50219827 eV

CRYSTAL
PRIMVEC
        4.88704545     0.00000000     0.00000000
       -0.00001088     4.88704545     0.00000000
       -2.44356105    -2.44356649     6.23695689
PRIMCOORD
6 1
Ti     -0.00021521     3.66546919     1.55923905    -0.00304496     0.00304496     0.00000000
Ti      2.44368859    -1.22199037     4.67771743     0.00304496    -0.00304496     0.00000000
O       0.00004882     1.22175306     1.01594924    -0.00023063    -0.00245720    -1.32118473
O       2.44342443     1.22172563     5.22100731     0.00023063     0.00245720     1.32118473
O      -0.00002760    -1.22173185     4.13442762    -0.00245720    -0.00023063    -1.32118473
O       2.44350078     3.66521046     2.10252893     0.00245720     0.00023063     1.32118473
