# total energy = -4988.75545252 eV

CRYSTAL
PRIMVEC
        3.88024823     0.00000000     0.00000000
        1.31772374     3.64964799     0.00000000
       -2.59902138    -1.82484885     5.03203712
PRIMCOORD
6 1
Ti      0.98818094     2.73737598     1.25800933     0.00031805    -0.00031805     0.00000000
Ti      1.61076897    -0.91257731     3.77402790    -0.00031805     0.00031805     0.00000000
O       0.32947136     0.91240697     0.81967778    -0.00035378    -0.00045046    -1.34654610
O       2.26947837     0.91239156     4.21235956     0.00035378     0.00045046     1.34654610
O      -0.32943989    -0.91238492     3.33569634    -0.00045046    -0.00035378    -1.34654610
O       2.92838955     2.73718342     1.69634099     0.00045046     0.00035378     1.34654610
