# total energy = -19073.65212646 eV

CRYSTAL
PRIMVEC
        7.60600008     0.00000000     0.00000000
        0.00000000     7.60600008     0.00000000
       -1.89786986    -1.89786986     4.85670466
PRIMCOORD
22 1
Ti      3.88564700     6.60638902     1.17394703    -0.69922873    -0.63615801     1.76295724
Ti      3.83519497     2.69747701     1.25359900    -0.13583297     1.44958619     0.96966955
Ti      0.33093200     6.83001102     1.00623599    -0.24867051    -0.43482384     1.97509518
Ti      0.02724099     2.91873501     0.94204801     0.25694020    -0.32572212     1.53058625
Ti      5.78900824     2.91634022     3.49806181    -1.11807728     0.11022503     0.34410989
Ti      5.94839923    -0.92969579     3.53082884    -0.55306789     0.27152839     3.03105844
Ti      1.78420323     2.78619024     3.80949283     1.45604017    -1.20836803    -1.44189524
Ti      1.02934421    -1.04664778     4.11870883     2.33690327     0.81043670    -3.43004701
O       3.80683398     4.71120500     0.89890498     0.14225251     0.61348858    -0.05546617
O       4.04414601     0.87007498     0.68042801     0.17633840     0.02961886     2.98659274
O       0.28691202     4.80128901     0.62117498    -0.08861182     0.08994159     0.32871412
O      -0.25669902     1.00444600     0.71089799     1.19410405     0.53661668     0.12623041
O       5.53253323     4.83322020     4.12586780     0.44073455    -0.23119934    -3.40132418
O       5.63956324     1.02989323     3.91113080     0.66160705    -1.19737244    -0.57858379
O       1.72884425     4.75981220     4.24416083    -0.60319928    -0.50148074    -1.94768824
O       1.96805221     0.92190022     4.20131382    -1.47228029    -0.00559549    -1.14486638
O       3.87764822     2.83112522     3.28554179    -0.65792857     0.29260965    -0.50758815
O       0.09172224     2.85135122     3.05223379    -0.59450226     0.32797210     0.72389205
O       5.86691202     6.68497401     1.79764502    -0.88904872    -0.56666235    -2.33092622
O       5.73840799     2.81960800     1.44503802     0.65937328     0.89952083     1.22540699
O       1.97763497     6.67668302     2.00029302    -0.04934180     0.15675585     0.16629567
O       1.96229402     2.72827698     1.54627201    -0.21450336    -0.48091757    -0.33222290
