# total energy = -19960.75502130 eV

CRYSTAL
PRIMVEC
        5.93400000     0.00000000     0.00000000
        0.00000000     9.29699974     0.00000000
        0.00000000     0.00000000     4.64899994
PRIMCOORD
24 1
Ti      4.48222000     7.00073498     2.36165801     0.55633217     0.13405300     0.50620926
Ti      4.42571202     2.29481202     2.24100501    -0.38610733     0.57465925     1.11744839
Ti      1.50136201     6.93113600     2.33054402    -0.51402336    -0.12057733    -0.12745194
Ti      1.46829399     2.32913599     2.27776801     0.48854012     0.57876685     1.22224967
Ti      2.98988200     4.66776801     0.01880400    -0.88177095    -0.37172946    -0.53261887
Ti      2.93505299     0.03212000     0.11354800     0.13553113    -0.62737614    -1.13712607
Ti      5.89152601     4.60420398     0.02353500     1.04180342    -0.04924693    -1.18133492
Ti      0.02654200     0.04789901     4.61811801     0.05406672    -1.03723225    -0.66883031
O       4.52665501     5.50466299     0.89141098    -1.22619246     1.15953865     1.00924090
O       4.45218501     0.86365400     0.92884202     0.07801296     0.04929809     0.08241571
O       1.45395498     5.45332301     0.95095798     0.85683793     0.69099580     0.45758377
O       1.45788502     0.87589900     0.97564500    -0.27383596     0.33811793    -0.50978773
O       4.39191098     8.44692602     3.68880603     0.50593415    -0.34117549     0.22711385
O       4.45306900     3.76952402     3.64315602    -0.15581508    -0.24344602    -0.00574076
O       1.42979200     8.41340000     3.74994500     0.39666891     0.39796655     0.36999474
O       1.47297699     3.75663099     3.78236901     0.49265260    -0.44609891    -1.31938316
O       3.04329201     5.99724600     3.26450001     0.21847032     1.16802997    -0.85869015
O       2.93052101     1.38933402     3.23401602     0.01094853     0.81524955    -0.46366803
O       0.05890198     6.18099100     3.29842001    -1.12458320    -0.17328830    -0.38713423
O       0.05000000     1.48243699     3.22092697    -0.59458711    -0.24566823     0.08008886
O       2.86948301     8.00699298     1.51918099     1.38732381    -0.91896660    -0.41807670
O       2.95912500     3.18186798     1.34105199     0.24491875    -0.27919285     0.41948232
O       0.17309102     7.81479999     1.33315402    -1.70362027     0.20155014     0.37705602
O       5.84817100     3.19013902     1.22953397     0.39249473    -1.25422778     1.74095913
