# total energy = -19071.83218679 eV

CRYSTAL
PRIMVEC
        5.17600016     0.00000000     0.00000000
        0.00000000     5.50899976     0.00000000
        0.00000000     0.00000000     9.26300011
PRIMCOORD
22 1
Ti      1.42460099     3.06082599     3.64468301     0.22045444     0.27549638    -1.51223602
Ti      4.44184102     3.09865999     5.80556302     1.06429338     1.51547947     0.17961990
Ti      3.94919002     2.32221001     1.60073298     0.45770204    -0.56048219     0.87599008
Ti      1.66062499     2.58113797     8.44495500    -1.28367772     0.50051735    -1.04574775
Ti      1.32211200     0.33394799     1.22494199     0.01151983     0.33390646     0.95368757
Ti      3.28260798     5.32947199     8.18451401    -0.83608578    -0.48218435    -0.88956294
Ti      1.72481001     0.27718098     5.56612402    -0.64883818    -0.33943099     0.57365884
Ti      3.82047898     4.93983502     3.41005799     1.20027059    -0.20867904    -1.52876077
O       3.15938303     3.30636899     4.33888102     0.46343483    -0.15316324     0.80882359
O       0.45973602     2.15174699     0.41952400    -0.83225637    -0.78732736     0.02587045
O       0.25016003     3.34527701     7.34158201    -0.49077312    -0.58065404    -0.42628855
O       2.78688802     1.29549698     0.39596201     1.05314301    -0.51209323    -2.16576287
O       1.93012502     4.40320600     8.99628001     0.10192037     0.31815459     2.31407032
O       3.35971498     0.43449998     4.77914998    -1.01305179     2.30866895     1.40723702
O       0.34875898     4.67704898     4.72633798     0.77721932    -1.00636306     1.27437984
O       5.01149102     3.66100602     2.50623500    -0.38279986    -1.06904015    -0.68333880
O       0.79171097     1.96272101     4.98213401    -0.51664666    -0.90133063     0.87004929
O       2.24612602     1.74012001     2.54767402    -0.70997903     0.76000552     0.24939196
O       2.94560002     4.32313000     6.63205301     0.75017028    -0.54156940     0.44784751
O       4.74515399     0.74058901     2.19573702     0.44045893    -0.66567737     0.30504608
O       1.77285301     0.83018200     7.40152398     0.13032798     1.32005550    -1.09792599
O       2.21045899     4.61773203     2.50702098     0.04319378     0.47571031    -0.93604825
