# total energy = -19908.16042743 eV

CRYSTAL
PRIMVEC
        6.59908444     0.00000000     0.00000000
        0.00003617     7.02342144     0.00000000
        0.00000000     0.00000000    11.81091010
PRIMCOORD
24 1
Ti      2.39187215     4.16207305     4.38176349     0.04977580    -0.92489043     0.61929542
Ti      4.20724846     2.86134846     7.42914695    -0.04977580     0.92489043    -0.61929542
Ti      5.69129884     2.86135087     1.52364453     0.04965471     0.92491382    -0.61947874
Ti      0.90782177     4.16207090    10.28726604    -0.04965471    -0.92491382     0.61947874
Ti      2.39185420     0.65036246     1.52369190     0.04977580    -0.92489043    -0.61929542
Ti      4.20726641     6.37305925    10.28721868    -0.04977580     0.92489043     0.61929542
Ti      0.90780382     0.65035985     7.42909958    -0.04965471    -0.92491382    -0.61947874
Ti      5.69131679     6.37306186     4.38181086     0.04965471     0.92491382     0.61947874
O       2.08866463     2.47306615     6.02701714     1.40800141     1.30837575    -0.00605289
O       4.51045599     4.55035542     5.78389330    -1.40800141    -1.30837575     0.00605289
O       1.21094165     2.47309444     0.12159994    -1.40770341     1.30871693    -0.00685482
O       5.38817903     4.55032714    11.68931016     1.40770341    -1.30871693     0.00685482
O       4.51043804     1.03864464     0.12156162    -1.40800141    -1.30837575    -0.00605289
O       2.08868258     5.98477687    11.68934848     1.40800141     1.30837575     0.00605289
O       5.38816108     1.03861635     6.02705547     1.40770341    -1.30871693    -0.00685482
O       1.21095947     5.98480523     5.78385497    -1.40770341     1.30871693     0.00685482
O       0.23978198     4.27204307     3.19042155     0.49566979    -0.28670022     0.32893652
O       6.35933864     2.75137844     8.62048889    -0.49566979     0.28670022    -0.32893652
O       3.53932949     2.75131298     2.71507122     0.49576107     0.28690000    -0.32919209
O       3.05979113     4.27210853     9.09583902    -0.49576107    -0.28690000     0.32919209
O       0.23976403     0.76033228     2.71503350     0.49566979    -0.28670022    -0.32893652
O       6.35935659     6.26308922     9.09587673    -0.49566979     0.28670022     0.32893652
O       3.05977318     0.76039774     8.62052654    -0.49576107    -0.28690000    -0.32919209
O       3.53934744     6.26302377     3.19038383     0.49576107     0.28690000     0.32919209
