# total energy = -19515.44373221 eV

CRYSTAL
PRIMVEC
        5.17600016     0.00000000     0.00000000
        0.00000000     5.50899976     0.00000000
        0.00000000     0.00000000     9.26300011
PRIMCOORD
23 1
Ti      2.00151399     3.20353599     3.38751901    -0.69971853    -0.87308859     3.08958140
Ti      3.33285299     2.29306700     5.87776502    -0.48924178     0.11435988    -1.27542165
Ti      4.36499200     2.11723802     1.61309498    -0.24183265    -0.77916770    -1.84251492
Ti      0.81908002     3.40760499     7.72560102    -0.93749192    -0.11756065     0.90242721
Ti      1.99439402     0.20640903     1.43965200    -1.70590135     0.44439066    -1.58242999
Ti      3.10600597     5.27533001     7.82523002     0.79035766     0.03581137     0.17977160
Ti      0.63184298     0.57309298     5.88970803     1.66963207     0.33170431    -3.16288152
Ti      4.53026998     4.84415999     3.45636598     1.88893286    -0.29890577     2.39310195
O       1.98849300     1.88845501     4.67689198    -1.94951707    -0.94594494     0.63631613
O       3.67223399     3.51309399     4.47152702     0.30310849     0.38442814    -0.59342883
O       4.99718101     2.74483202     9.24323999     0.30826690     0.13219332    -0.72932145
O       3.34963098     0.66121798     0.32170902     1.08711398     0.90726679    -1.44640264
O       1.82282401     4.53954699     8.88968302    -0.88157298    -0.03271601     2.16174217
O       4.38999599     0.61062599     4.79516002    -2.49266718     1.48086264    -0.71914605
O       1.07015499     4.66082499     4.49797498     0.10671805    -0.15431098    -0.47660531
O       0.34364199     3.21921302     2.54703800    -0.34512188     1.17771892    -0.40364509
O       5.13653899     2.44878302     6.36967899     0.21544130    -0.95885651     0.69377362
O       2.72743802     1.49910200     2.51020102     0.16733208     2.30567104    -0.83125519
O       2.43995200     3.74050601     6.71009998     0.85583494     0.52786336     0.94447813
O       0.09999799     0.65911302     2.24769402     1.46840230    -0.72550850    -1.37711319
O       5.06427798     4.99023799     7.07292100    -1.84428615    -1.27825424     2.56938842
O       2.11568700     1.12243099     6.98502402     1.62782155    -0.04458012     1.65560336
O       2.90505398     4.54246598     2.38174801     1.09838905    -1.63337668    -0.78601815
