# total energy = -4988.04925175 eV

CRYSTAL
PRIMVEC
        3.56536688     0.00000000     0.00000000
        0.00000000     4.12907516     0.00000000
        0.00000000    -0.00006515     4.96955008
PRIMCOORD
6 1
Ti      1.78268350     2.06450484     2.48477504     0.00000000     0.00000000     0.00000000
Ti      0.00000000     0.00000000     0.00000000     0.00000000     0.00000000     0.00000000
O       1.78268350     0.80468317     0.96849210     0.00000000     0.22527680     0.30677309
O       1.78268350     3.32432646     4.00105792     0.00000000    -0.22527680    -0.30677309
O       0.00000000     1.25979534     3.45326824    -0.00000000    -0.22457052     0.30556673
O       0.00000000     2.86921434     1.51628184    -0.00000000     0.22457052    -0.30556673
