# total energy = -19918.85742669 eV

CRYSTAL
PRIMVEC
        6.68448456     0.00000000     0.00000000
        0.00003327     6.43675918     0.00000000
        0.00000000     0.00000000    11.42261086
PRIMCOORD
24 1
Ti      2.42282390     3.81441747     4.23770726     0.22773915    -0.90178109     0.76564292
Ti      4.26169393     2.62234158     7.18490399    -0.22773915     0.90178109    -0.76564292
Ti      5.76494968     2.62234379     1.47355274     0.22778594     0.90210685    -0.76606741
Ti      0.91956821     3.81441558     9.94905871    -0.22778594    -0.90210685     0.76606741
Ti      2.42280733     0.59603801     1.47359856     0.22773915    -0.90178109    -0.76564292
Ti      4.26171056     5.84072123     9.94901289    -0.22773915     0.90178109     0.76564292
Ti      0.91955158     0.59603567     7.18485823    -0.22778594    -0.90210685    -0.76606741
Ti      5.76496625     5.84072364     4.23775308     0.22778594     0.90210685     0.76606741
O       2.11569330     2.26649225     5.82887104     1.16958395     1.36721495    -0.44077518
O       4.56882459     4.17026680     5.59374021    -1.16958395    -1.36721495     0.44077518
O       1.22661158     2.26651828     0.11760219    -1.16935384     1.36745766    -0.44159305
O       5.45790638     4.17024083    11.30500880     1.16935384    -1.36745766     0.44159305
O       4.56880795     0.95188714     0.11756515    -1.16958395    -1.36721495    -0.44077518
O       2.11570993     5.48487191    11.30504584     1.16958395     1.36721495     0.44077518
O       5.45788974     0.95186118     5.82890814     1.16935384    -1.36745766    -0.44159305
O       1.22662801     5.48489794     5.59370318    -1.16935384     1.36745766     0.44159305
O       0.24288313     3.91520183     3.08553224    -0.16945633    -0.12229020     0.12377501
O       6.44163476     2.52155728     8.33707901     0.16945633     0.12229020    -0.12377501
O       3.58513133     2.52149737     2.62580971    -0.16959697     0.12234522    -0.12396784
O       3.09938649     3.91526174     8.79680141     0.16959697    -0.12234522     0.12396784
O       0.24286650     0.69682218     2.62577319    -0.16945633    -0.12229020    -0.12377501
O       6.44165132     5.73993693     8.79683786     0.16945633     0.12229020     0.12377501
O       3.09936992     0.69688209     8.33711546     0.16959697    -0.12234522    -0.12396784
O       3.58514796     5.73987696     3.08549579    -0.16959697     0.12234522     0.12396784
