# total energy = -4981.68935664 eV

CRYSTAL
PRIMVEC
        4.40571679     0.00000000     0.00000000
        0.00000000     3.32371399     0.00000000
        0.00000000    -0.00008787     5.82724278
PRIMCOORD
6 1
Ti      2.20285834     1.66181289     2.91362145     0.00000000     0.00000000     0.00000000
Ti      0.00000000     0.00000000     0.00000000     0.00000000     0.00000000     0.00000000
O       2.20285834     0.64772571     1.13564382     0.00000000     0.25536000     2.40554918
O       2.20285834     2.67590006     4.69159908     0.00000000    -0.25536000    -2.40554918
O       0.00000000     1.01405224     4.04926647     0.00000000    -0.25561634     2.40628914
O       0.00000000     2.30957353     1.77797643     0.00000000     0.25561634    -2.40628914
