# total energy = -19904.91580872 eV

CRYSTAL
PRIMVEC
        6.91998130     0.00000000     0.00000000
        0.00002266     3.15640822     0.00000000
        0.00000000     0.00000000    10.53167068
PRIMCOORD
24 1
Ti      2.50817371     1.87048460     3.90717471    -0.96475385     0.76049583    -0.64386309
Ti      4.41182995     1.28592367     6.62449612     0.96475385    -0.76049583     0.64386309
Ti      5.96804592     1.28592475     1.35861858    -0.96186290    -0.76122731     0.64637480
Ti      0.95195774     1.87048363     9.17305235     0.96186290     0.76122731    -0.64637480
Ti      2.50816253     0.29228054     1.35866083    -0.96386759     0.76113269     0.64336198
Ti      4.41184113     2.86412778     9.17301010     0.96386759    -0.76113269    -0.64336198
Ti      0.95194656     0.29227937     6.62445388     0.96234036     0.76118463     0.64571172
Ti      5.96805710     2.86412896     3.90721696    -0.96234036    -0.76118463    -0.64571172
O       2.19022567     1.11142498     5.37423098     6.54573874    -1.46793718     3.37255635
O       4.72977799     2.04498324     5.15743986    -6.54573874     1.46793718    -3.37255635
O       1.26982123     1.11143772     0.10842944    -6.54334633    -1.46848534     3.37323512
O       5.65018247     2.04497056    10.42324109     6.54334633     1.46848534    -3.37323512
O       4.72976686     0.46677913     0.10839528    -6.54365152     1.46823723     3.37394526
O       2.19023680     2.68962915    10.42327525     6.54365152    -1.46823723    -3.37394526
O       5.65017135     0.46676640     5.37426514     6.54260354     1.46896203     3.37468137
O       1.26983226     2.68964188     5.15740570    -6.54260354    -1.46896203    -3.37468137
O       0.25143260     1.91990640     2.84486702     2.18610801    -0.96382800     0.74040265
O       6.66857105     1.23650183     7.68680382    -2.18610801     0.96382800    -0.74040265
O       3.71143206     1.23647242     2.42100188     2.18565498     0.96437385    -0.73750579
O       3.20857160     1.91993585     8.11066880    -2.18565498    -0.96437385     0.73750579
O       0.25142148     0.34170228     2.42096827     2.18585013    -0.96367836    -0.73946626
O       6.66858218     2.81470599     8.11070241    -2.18585013     0.96367836     0.73946626
O       3.20856047     0.34173169     7.68683737    -2.18532254    -0.96392827    -0.74043428
O       3.71144319     2.81467658     2.84483341     2.18532254     0.96392827     0.74043428
