# total energy = -19961.75414131 eV

CRYSTAL
PRIMVEC
        7.60600008     0.00000000     0.00000000
        0.00000000     7.60600008     0.00000000
       -1.89786986    -1.89786986     4.85670466
PRIMCOORD
24 1
Ti      3.84878298     6.69955200     1.16822001    -0.25317045    -1.21193106     0.29779479
Ti      3.83074798     2.78350102     1.16340301    -0.74723999     1.07900267     1.12347660
Ti     -0.03219700     6.61989299     1.23449199     0.08861799     0.44210212    -0.97976242
Ti     -0.05779002     2.85835002     1.27983000     0.89440510    -0.31126969    -0.13565685
Ti      5.69793324     2.82785025     3.68908882    -0.15168100     0.23122968    -0.17621911
Ti      5.69803124    -0.93414078     3.63884979    -0.31121518    -0.18129189     0.53772406
Ti      1.96193524     2.83259422     3.67193480    -0.36358189     0.15321647    -0.91724319
Ti      1.93609821    -0.94930377     3.62732081     0.26812219    -0.32160964    -1.43276859
O       3.87818200     4.78329201     0.71157999    -0.18373521    -1.13183988     1.50138571
O       3.84091702     0.93073298     0.70119801    -0.08789602     0.23159452     0.40924701
O      -0.19173700     4.72630401     0.80609798     0.60033173     1.01475334     0.21414623
O      -0.05442001     1.02820801     0.72413102     0.24548156    -1.34252413     0.69925033
O       5.52283923     4.76611221     4.00743280     0.40857647     0.01754444     0.64078291
O       5.67063023     0.97111423     4.11104883     0.41300417     0.14753767    -0.36382100
O       2.03117925     4.68226223     4.04635183    -0.17619545     1.99232621    -0.49335400
O       1.86577622     0.89392124     4.05490281    -0.24018895     0.11195204    -0.05948069
O       3.75817323     2.71389421     3.15691383     0.84739966     0.03244708     0.21562333
O       3.86139422    -0.77487679     3.15089280    -1.35198399    -0.47184491     0.24661954
O      -0.05598579     2.92897925     3.28176082     0.41731617    -0.21153065     0.05434697
O      -0.04380376    -1.03074679     3.14673082     1.05905810     0.04422171     0.69582099
O       5.70614602     6.73404398     1.60573402    -0.00573202     0.05052965    -0.21613781
O       5.70655999     2.81515100     1.70373701    -1.06858841    -0.11232897    -0.60695129
O       1.91472300     6.72683601     1.61272397    -0.21737374    -0.33535168    -0.06221249
O       1.89161298     2.84151001     1.70885198    -0.08373006     0.08306466    -1.19261153
