# total energy = -19957.80417329 eV

CRYSTAL
PRIMVEC
        7.60600008     0.00000000     0.00000000
        0.00000000     7.60600008     0.00000000
       -1.89786986    -1.89786986     4.85670466
PRIMCOORD
24 1
Ti      3.89478001     6.63844901     1.08935698    -1.33537388    -1.86597367    -0.02987520
Ti      3.91772699     2.59481303     1.19643801    -2.00881547     1.88865569     1.01467081
Ti     -0.09424001     6.80419400     1.20201099     0.20948791    -1.88584316    -0.08918826
Ti     -0.07804698     2.97916499     1.25676702     1.82469639     1.01146490     1.38908039
Ti      5.53490823     2.95954924     3.68160382     0.08264017     1.08794419     0.59591071
Ti      5.81264225    -0.76503679     3.80427679    -1.50261675    -1.23079937    -1.97712584
Ti      1.73250324     2.61993524     3.71201680     1.08685790     2.18292421    -0.20111459
Ti      2.05008924    -0.96697977     3.55571583     0.85484661    -1.66631818    -2.19864986
O       3.91250301     4.55317801     0.63199602    -0.72750599     0.44914515     1.51489789
O       4.12867202     0.82996499     0.53555802    -0.91999016     0.76270287     2.58583706
O      -0.09914099     4.88464501     0.66644599     0.16043407    -0.21515899     3.12573010
O      -0.11036399     1.03070298     0.78630802     0.31895292     0.18190690     1.36378870
O       5.29299723     4.87663623     4.20054180     1.42885357     0.69056360    -1.58972499
O       5.53934924     1.08191125     4.33065681    -0.07487955    -1.64100952    -3.87716304
O       2.43038723     4.55227021     4.16937083    -2.23220123     0.51442343    -2.09634511
O       1.99977924     0.83588420     4.13363380    -0.36411848    -0.21362481    -2.33687370
O       3.82023122     2.78965122     3.19342579    -2.37605604    -1.28553432    -1.14895058
O       3.82582023    -0.88404478     3.17623679     0.34557465     0.68672597     0.15727521
O      -0.18533380     2.85781825     3.34069180     2.80639408    -0.02684593    -0.55431642
O       0.01075823    -0.90515075     3.16444683    -0.66087275     0.07777050     1.16469268
O       5.59988998     6.68793000     1.61230598     3.19878416    -0.03311788     1.74859377
O       5.65054102     2.95419899     1.70081399     0.74266985    -0.30819902    -0.85927791
O       1.96009000     6.47551301     1.51939002    -0.67745020     0.92388821     0.25426009
O       1.86461801     2.73927497     1.29332698    -0.18031127    -0.08569053     2.04386836
