# total energy = -19961.19677641 eV

CRYSTAL
PRIMVEC
        7.60600008     0.00000000     0.00000000
        0.00000000     7.60600008     0.00000000
       -1.89786986    -1.89786986     4.85670466
PRIMCOORD
24 1
Ti      3.65745503     6.75095400     1.30408103     2.46888987    -1.09543819    -0.91828243
Ti      3.82451501     2.90560099     1.21440601     0.36351453     1.36403732    -0.69296064
Ti      0.11076802     6.53526998     1.15908598    -2.21066566     0.68458784     0.30152289
Ti      0.02972902     2.77555198     1.12244300    -0.19008918    -0.53588546     1.45181173
Ti      5.71647423     2.74058125     3.58982681     0.47606538     0.35188028    -0.34351468
Ti      5.66235422    -1.07184878     3.57093883     0.69014502    -0.18505882    -0.14906130
Ti      1.94474523     2.99893521     3.58749081    -0.52524469    -0.76712465     1.21153486
Ti      1.83847623    -0.89221179     3.67658780    -0.57658578     0.65258839     1.03489357
O       3.65205498     4.84166603     0.84362998     0.59357564     0.04320149    -0.42045188
O       3.75252098     1.07624302     0.97907401    -0.00854661    -2.24626748    -0.97482024
O       0.12922202     4.64922903     0.78079601     0.17317543     0.33703807    -0.17759516
O       0.09253299     0.81333702     0.79781202     0.04006732     0.74248422    -0.52187937
O       5.72987120     4.63413223     4.01322883     0.26511169     0.92398694     0.34134852
O       5.57300523     0.86905425     4.09877483     0.17412905     0.02727761    -0.91326030
O       1.75306220     4.80024722     4.12360282     0.20008461     0.96298673     0.04909935
O       1.91420821     0.94755923     4.07576080     0.12658214     0.83136574     0.27441111
O       3.84407224     3.02559723     3.33536081    -0.15659695    -0.50036103    -0.42034878
O       3.72988823    -0.91231280     3.27701579     1.05961628    -0.36374361    -0.21279538
O       0.01926221     2.84175623     3.14849780    -0.20757732    -0.31533512     0.01735521
O      -0.02763178    -0.78960077     3.19673183     0.58170202    -0.60709193     0.38289448
O       5.80230398     6.48928802     1.64828601    -1.18357281     0.22849942     0.11813735
O       5.69626098     2.79767900     1.55925601     0.94935037     0.03746176     0.70273521
O       1.91928302     6.70662202     1.72110699    -1.19803656    -0.23541801    -0.15947582
O       2.01854001     2.93266598     1.67397402    -1.90509379    -0.33567178     0.01870170
