# total energy = -19961.16926623 eV

CRYSTAL
PRIMVEC
        5.93400000     0.00000000     0.00000000
        0.00000000     9.29699974     0.00000000
        0.00000000     0.00000000     4.64899994
PRIMCOORD
24 1
Ti      4.44089099     6.90512498     2.31633302     0.23976394     1.32360903     0.07698117
Ti      4.46968802     2.32340299     2.32147303     0.01317897     0.32166801    -0.10254232
Ti      1.45186600     6.97066400     2.32568099    -0.18415148     0.89663142    -0.19992571
Ti      1.52653502     2.27885399     2.34902803    -0.02500759     0.61517420    -0.01317022
Ti      2.97709400     4.65824203     4.57192702    -1.18812084     0.08192489     0.08322227
Ti      2.96798602     0.03971798     0.03222599     0.04210312    -1.70938366    -0.34176144
Ti      5.90239600     4.64042701     0.05528399     1.17521004     0.09639841    -0.15437989
Ti      5.91937201     0.06255801     4.64180001    -0.00718444    -1.57218903    -0.51522972
O       4.46406599     5.53674098     0.89672202    -0.28698098     0.07929414     0.02998499
O       4.51728402     0.92500099     0.90759301    -0.58463822     0.19654214     0.15539290
O       1.43690600     5.58869200     0.86085603     0.24908728    -0.62029584    -0.20387082
O       1.45575301     0.92124600     0.79953602     0.29453772     0.42709510     1.17374065
O       4.46091903     8.34823801     3.79839599     0.08405634     0.48427157    -0.31663276
O       4.39742299     3.78434702     3.73828198     0.39623671    -0.60665022    -0.08878665
O       1.51689400     8.35085897     3.66786299    -0.03389307     0.69210677     0.93104205
O       1.49353902     3.73924498     3.69811298     0.02123346     0.25633188     0.63980846
O       2.97966602     6.05655798     3.22385602     0.09011566    -0.30942287     0.11397139
O       2.89135798     1.41439199     3.32252297     0.84072302     0.15022807    -0.77920601
O       0.02305001     6.03367001     3.17111197    -0.40004426    -0.31445657     0.42040226
O       0.04887000     1.50255800     3.21059098    -0.83282562    -1.22515219     0.85169855
O       3.00493201     7.88496100     1.38583103    -0.00732225    -0.17663640     0.33265459
O       2.97877499     3.15510198     1.48626998     0.13034598     0.73273948    -0.95098353
O       0.01472002     7.92847001     1.47297302    -0.16479029    -0.14654214    -0.41764270
O       5.88315798     3.24397000     1.47192001     0.13836628     0.32671406    -0.72476700
