# total energy = -19518.20660961 eV

CRYSTAL
PRIMVEC
        5.17600016     0.00000000     0.00000000
        0.00000000     5.50899976     0.00000000
        0.00000000     0.00000000     9.26300011
PRIMCOORD
23 1
Ti      1.84677902     3.23153100     3.50937700    -0.27367449    -0.04675913     1.39070687
Ti      3.39487801     2.16919698     5.82957402    -0.54792183     1.02081087    -2.07053585
Ti      4.39854898     2.05382703     1.43372601    -0.59867234     0.71429078    -0.57221953
Ti      0.87990201     3.35494302     7.77281702     0.31576295     0.79618507     0.65528574
Ti      1.96904902     0.29621601     1.38947198     1.04819441     0.16748326    -1.32628760
Ti      3.25924798     5.17623501     7.94204298     1.18062401     0.05309664     0.12621267
Ti      0.67755199     0.55203601     5.91995299    -0.11932803    -0.46986413    -2.74107029
Ti      4.46760301     4.92860302     3.35588099     0.83410628    -0.21324455     2.95381116
O       1.64663101     1.91563800     4.74817999    -0.31462395    -0.37530998     0.51143709
O       3.50286801     3.56782600     4.50535600     0.12428614    -0.18063549     0.01902463
O       5.17092397     3.00016798     0.03193802    -0.20192192    -0.74154139     0.20926782
O       3.49961299     0.91805601     0.09744000    -0.41637668     0.08605177     0.13306929
O       1.97590398     4.59762599     9.04457997    -1.43090917    -0.42941450     1.44324019
O       4.26399402     0.82751998     4.75377101    -0.18363057     0.00436908    -0.38489789
O       0.87794898     4.73187900     4.49955600     0.71708222    -0.30814271     0.42395167
O       0.12608003     3.40171202     2.57210301     0.30754802    -0.99190214    -0.53342800
O       5.02725299     2.10833498     6.79459202     0.20577138    -0.27841844     0.24905591
O       2.62816601     1.94593498     2.21664000    -0.19453051     0.42068046    -0.38875968
O       2.66612500     3.55594602     6.92833702    -0.88525609    -0.59909785     1.09986409
O       0.12243997     0.52665302     1.96633498     1.32001745     0.26554415    -0.31780904
O       5.04689800     4.81820400     7.23729298     0.29154804     0.43272094    -0.14261272
O       2.40381602     0.74150401     6.76714000    -0.30652729     0.54053067     0.40142880
O       2.82752899     4.65571499     2.48010401    -0.87156804     0.13256690    -1.13873481
