# total energy = -4988.59323804 eV

CRYSTAL
PRIMVEC
        3.99952224     0.00000000     0.00000000
        1.17344558     3.82350672     0.00000000
       -2.58652001    -1.91178004     5.16399982
PRIMCOORD
6 1
Ti      0.87996179     2.86777662     1.29099965     0.00010722    -0.00010722     0.00000000
Ti      1.70648577    -0.95605013     3.87299939    -0.00010722     0.00010722     0.00000000
O       0.29340323     0.95587138     0.84117323    -0.00057310    -0.00079164    -1.22600966
O       2.29304416     0.95585503     4.32282582     0.00057310     0.00079164     1.22600966
O      -0.29337243    -0.95584861     3.42317297    -0.00079164    -0.00057310    -1.22600966
O       2.87981980     2.86757491     1.74082613     0.00079164     0.00057310     1.22600966
