# total energy = -19516.35241801 eV

CRYSTAL
PRIMVEC
        5.17600016     0.00000000     0.00000000
        0.00000000     5.50899976     0.00000000
        0.00000000     0.00000000     9.26300011
PRIMCOORD
23 1
Ti      1.76200900     3.14480102     3.37985298     1.04469771     0.86688709     2.87901414
Ti      3.28938103     2.22149499     5.85780599     1.59557811     1.49066626    -2.65951924
Ti      4.55643600     1.99991201     1.49607500    -3.24979050     2.29122838    -4.01069950
Ti      0.95780400     3.37503900     7.75365699    -1.28944394    -0.12892544     0.40280845
Ti      1.98692600     0.36103203     1.35483701     1.79216498    -1.50103604    -2.06013780
Ti      3.20686801     5.27029002     7.81227401     0.09905076     0.07041714     1.92165556
Ti      0.69775799     0.45084102     6.00433401    -0.24565486     1.03834554    -3.32831485
Ti      4.50838300     4.88488499     3.38244399    -0.79117270    -0.54995917     4.07976270
O       1.59123102     1.94864903     4.79763202     0.65241587    -0.30915727    -1.24704643
O       3.55821101     3.59608502     4.55152502    -0.79942646    -0.57695499    -0.95407606
O       0.09658199     2.85448602     9.20520199    -0.69725361    -1.60875090     2.27784835
O       3.51772699     0.81040898     0.14122698    -0.26543565    -0.01984841    -0.07594836
O       1.96430198     4.46420601     9.03932000     0.38665549     1.76325575     0.54859623
O       4.30659501     0.71275799     5.07191502    -1.75051952    -0.11483759    -1.70230901
O       0.91688103     4.61254101     4.50463700     0.26558220     0.66227991     0.10297118
O       5.17031600     3.34645602     2.57488903     1.05218554    -0.47297826    -0.34320666
O       5.07857302     2.23905499     6.69970800    -0.98153288    -0.47592140     0.09674525
O       2.58819201     1.97054098     2.10512700     0.47509993     0.14646423     0.06420484
O       2.57071001     3.69889902     6.86364600     0.96992743     0.42572008    -0.12545137
O       0.15617502     0.58940402     2.11911300     1.97980570    -1.61794517     0.48655806
O       5.06451500     4.88061601     7.23912102    -0.80199397    -0.48407591     1.29190680
O       2.19094098     1.15457898     7.00162997     0.57171148    -1.13306219     1.62400140
O       2.79981100     4.59646799     2.32545403    -0.01265137     0.23818837     0.73063580
