# total energy = -19961.91583483 eV

CRYSTAL
PRIMVEC
        7.60600008     0.00000000     0.00000000
        0.00000000     7.60600008     0.00000000
       -1.89786986    -1.89786986     4.85670466
PRIMCOORD
24 1
Ti      3.82829800     6.52123101     1.23399700    -0.17180221     1.78443239    -0.21273418
Ti      3.79130200     2.81299201     1.24328602    -0.11102362    -1.51343467    -1.22420243
Ti      0.00862099     6.70934702     1.16003099     0.16299977     0.13088900     1.46142098
Ti     -0.00569897     2.92001398     1.18895502     0.18552702    -0.42144536     0.31442804
Ti      5.67266222     2.90973524     3.60132382     0.22503589    -0.71049120     0.09611250
Ti      5.70272224    -0.90729778     3.64760979     0.36714364     0.53693756    -0.26681324
Ti      1.88280424     2.82172121     3.61147783    -0.21778100    -0.47668090     0.33258003
Ti      1.91831225    -1.00100179     3.60676281    -0.45503015     0.44420889     1.27346761
O       3.81387897     4.66678898     0.87280199     0.11180138     0.51478775    -0.66400178
O       3.81474598     0.84609600     0.83646101     0.08092345     1.08759710    -0.20186201
O       0.00613502     4.76898702     0.75310998     0.01693586     0.48309504     0.01322705
O      -0.03058697     1.01072299     0.78514399     0.25350264    -1.01134406     0.16168234
O       5.62353721     4.80327522     4.10316282     0.22025878    -0.47969989    -0.75508340
O       5.68409224     0.97732820     4.12396679     0.07860534     0.56297179    -1.17733069
O       1.89892520     4.75337423     4.10595783     0.07243700    -1.29362790    -0.23980354
O       1.84696021     0.91528524     4.04734584     0.20355277     0.71400898     0.52087998
O       3.75157121     2.92170825     3.25371379     1.32796705    -0.20379831    -0.16903904
O       3.77760525    -0.82637875     3.22043881     1.17287702    -0.52860281     0.05512113
O       0.04260120     2.87773923     3.19130480    -1.31864937     0.31150058     0.25189133
O       0.04131525    -0.92500077     3.26284781    -1.14850912    -0.07440313    -0.47937722
O       5.73372800     6.59748202     1.67087600     0.22403676    -0.05969230    -0.01879760
O       5.69994199     2.73923502     1.58998099     0.10237005     0.56207756     1.03308043
O       1.92974602     6.63180599     1.65232802    -0.84500777    -0.31575473    -0.57723061
O       1.92086098     2.83335100     1.59827500    -0.53817117    -0.04353085     0.47238356
