# total energy = -19075.63493300 eV

CRYSTAL
PRIMVEC
        7.60600008     0.00000000     0.00000000
        0.00000000     7.60600008     0.00000000
       -1.89786986    -1.89786986     4.85670466
PRIMCOORD
22 1
Ti      3.85729400     6.54254998     1.21340201     0.02819061     0.33658144    -0.24789300
Ti      3.77233999     2.75045601     1.20346898    -0.26858679    -0.07938567     1.28026998
Ti      0.11982700     6.84063298     0.99016001    -0.47468598    -1.28637995     1.02467215
Ti     -0.04250299     2.95620500     1.19628799     0.60507310     0.21830371    -1.96734562
Ti      5.64949320     2.94543523     3.59983979    -1.59667700    -0.47658397     0.43604589
Ti      6.12972420    -0.83286879     3.56337080    -0.99438274     0.38017322    -0.21683381
Ti      1.79419124     2.69013124     3.71240283     1.36125745    -0.24113768    -1.11163820
Ti      1.52350220    -1.05011876     3.81945280     0.26076318     0.34222887    -0.90843999
O       3.95983299     4.57801902     0.70015500     0.17426661     1.40822329     0.74392609
O       3.64276099     0.91562799     1.00292001    -0.04103199    -1.78261925    -0.50524458
O      -0.09333898     4.96112102     0.69879099     0.15203787    -1.34067293    -0.00295831
O       0.14493398     1.03695701     0.72423802     0.67774536     0.89033119     0.46256708
O       5.41396625     4.97578621     3.78171680     1.16149937     0.07960987     0.33820304
O       5.42167821     0.98471224     4.03713780     1.19705028    -0.40839855     0.64579708
O       1.85567221     4.67032923     4.20909384    -0.21040039     0.20771487    -0.23922118
O       2.22894024     0.69967721     4.00856381    -1.48756345     0.46744935     0.20733409
O       3.74353825     2.73725722     3.15730182     0.00132875     0.71157800    -0.05171107
O      -0.10908978     2.68633222     3.53624084     1.76327734     0.34726155    -1.35988756
O       5.85243400     6.84865298     1.61511300    -0.75855002    -0.13897666     0.69950076
O       5.76878801     2.78168298     1.62929098    -0.22624971     0.24338509     0.36154532
O       2.02346897     6.37498600     1.96110999     0.02941472     0.64838284    -0.30923595
O       1.89093902     3.08237001     1.56255898    -1.35377759    -0.52706889     0.72054781
