# total energy = -4976.26016569 eV

CRYSTAL
PRIMVEC
        3.81235428     0.00000000     0.00000000
        0.00000000     5.97338762     0.00000000
        0.00000000    -0.00007752     5.97338761
PRIMCOORD
6 1
Ti      1.90617707     2.98665498     2.98669374     0.00000000     0.00000000     0.00000000
Ti      0.00000000     0.00000000     0.00000000     0.00000000     0.00000000     0.00000000
O       1.90617707     1.16411014     1.16412525     0.00000000    -0.95881126    -0.95881126
O       1.90617707     4.80919982     4.80926223     0.00000000     0.95881126     0.95881126
O       0.00000000     1.82251341     4.15082020     0.00000000     0.95935222    -0.95935222
O       0.00000000     4.15079655     1.82256728     0.00000000    -0.95935222     0.95935222
