# total energy = -4984.64615578 eV

CRYSTAL
PRIMVEC
        4.39263618     0.00000000     0.00000000
       -0.00000978     4.39263618     0.00000000
       -2.19635254    -2.19635743     5.60598071
PRIMCOORD
6 1
Ti     -0.00019344     3.29464351     1.40149502    -0.00074459     0.00074459     0.00000000
Ti      2.19646718    -1.09836488     4.20448532     0.00074459    -0.00074459     0.00000000
O       0.00004388     1.09815158     0.91316839    -0.00041575    -0.00236259    -1.23863481
O       2.19622974     1.09812693     4.69281201     0.00041575     0.00236259     1.23863481
O      -0.00002481    -1.09813252     3.71615868    -0.00236259    -0.00041575    -1.23863481
O       2.19629837     3.29441096     1.88982172     0.00236259     0.00041575     1.23863481
