# total energy = -4978.32729981 eV

CRYSTAL
PRIMVEC
        2.71070946     0.00000000     0.00000000
        1.44237355     3.99485997     0.00000000
       -0.00000937    -0.00005628     4.31586905
PRIMCOORD
6 1
Ti      2.07653681     1.99740180     2.15793453     0.00000000     0.00000000     0.00000000
Ti      0.00000000     0.00000000     0.00000000     0.00000000     0.00000000     0.00000000
O       1.63645024     0.77852839     0.84109932    -9.39613650     4.00431442     5.20170846
O       2.51662339     3.21627520     3.47476978     9.39613650    -4.00431442    -5.20170846
O       0.44008263     1.21885066     2.99903471     9.39577551    -4.00473249     5.20205865
O       1.00228162     2.77595292     1.31683439    -9.39577551     4.00473249    -5.20205865
