# total energy = -4928.86327161 eV

CRYSTAL
PRIMVEC
        5.84543903     0.00000000     0.00000000
       -0.00000758     2.21723518     0.00000000
       -2.92275456    -1.10872284     6.45126358
PRIMCOORD
6 1
Ti     -0.00024977     1.66298914     1.61281561    -0.03505186    -0.02311088    64.30771873
Ti      2.92292671    -0.55447707     4.83844746     0.03505186     0.02311088   -64.30771873
O       0.00006206     0.55429115     1.05085803     0.03379871     0.02304301   -59.66123660
O       2.92261471     0.55422086     5.40040509    -0.03379871    -0.02304301    59.66123660
O      -0.00002534    -0.55435222     4.27648982    -0.00142388     0.00022626    -0.99170520
O       2.92270200     1.66286418     2.17477331     0.00142388    -0.00022626     0.99170520
