# total energy = -19951.16390228 eV

CRYSTAL
PRIMVEC
        5.93400000     0.00000000     0.00000000
        0.00000000     9.29699974     0.00000000
        0.00000000     0.00000000     4.64899994
PRIMCOORD
24 1
Ti      4.43885001     6.62898399     2.56756299     1.94145897     5.21549755    -3.66092779
Ti      4.37519602     2.48395500     2.25211302     2.11634650     0.83996146    -0.35464088
Ti      1.58902001     6.04747201     2.30588801    -2.29151608     6.87941843    -1.89122731
Ti      1.50530300     2.56317399     2.20499699    -1.90733271    -0.56983303     0.91619804
Ti      3.00100202     4.54488803     0.09022297     1.90067586     3.75592674    -0.96422498
Ti      2.84255000     0.58297399     4.53958202    -2.43376165    -6.07270752    -2.07620334
Ti      0.05310802     4.38361401     4.60765803    -1.44440078     1.41863061    -1.06639474
Ti      5.82999201     0.55870301     4.47459498     0.31949722    -7.22712247    -1.23079474
O       4.47405500     5.46909101     1.01194603     0.07181917    -1.67740709    -0.96354749
O       4.33096198     1.11549702     0.87177798     0.81764248     1.48353093     0.83506839
O       1.38688599     5.46562199     0.57246099     1.35174025    -0.33149297     2.00733632
O       1.38974900     1.36702100     0.80074498     0.58422967    -0.41441468    -0.11841554
O       4.68580099     8.40428598     3.87879902    -0.00994195     2.34119650     0.42921138
O       4.38635499     3.71073899     3.84379500    -0.15036305    -1.79679143    -1.11565890
O       1.51558100     8.78590099     3.65664798     0.96885708     2.34268980     2.57191838
O       1.62299901     3.54749400     3.77427598    -0.68094433    -0.11595320     0.61632374
O       2.99238601     6.02757002     3.50120698    -0.27211178    -1.72993244     1.60178244
O       3.04900898     1.57972300     3.01510698    -1.24141571    -0.88036790     0.73739266
O       0.06125698     5.72897499     3.42532698    -0.66975025     0.11552588    -1.36029920
O       5.83277199     1.57149900     3.01594900     0.32955693     0.78095899    -0.29907546
O       2.99753797     7.33739802     1.46595698     0.02949931    -0.37348733     1.84320011
O       2.91747002     3.58996302     1.63628702     0.00651055    -0.97366890     0.76120057
O       0.20982598     7.43157601     1.73142102     0.13912373    -1.23156067     1.00019807
O       5.90838200     3.53668101     1.56934202     0.52458109    -1.77859752     1.78158026
