# total energy = -19956.60953830 eV

CRYSTAL
PRIMVEC
        5.40963256     0.00000000     0.00000000
        1.14012423     5.64346958     0.00000000
        0.00000000     0.00000000     9.73131025
PRIMCOORD
24 1
Ti      2.63636809     3.34431485     3.61024682     0.59809024    -1.60664439     0.85133731
Ti      3.91338843     2.29915487     6.12106381    -0.59809024     1.60664439    -0.85133731
Ti      5.12994650     2.29915689     1.25536962    -1.10571232    -0.43495934     0.39468736
Ti      1.41981005     3.34431304     8.47594113     1.10571232     0.43495934    -0.39468736
Ti      2.06630611     0.52258027     1.25540864     0.59809024    -1.60664439    -0.85133731
Ti      4.48345043     5.12088961     8.47590211    -0.59809024     1.60664439     0.85133731
Ti      0.84974797     0.52257808     6.12102479     1.10571232     0.43495934     0.39468736
Ti      5.70000857     5.12089179     3.61028584    -1.10571232    -0.43495934    -0.39468736
O       2.11363989     1.98716160     4.96581328     0.90393516     1.22611404    -0.57397328
O       4.43611664     3.65630811     4.76549735    -0.90393516    -1.22611404     0.57397328
O       1.39412673     1.98718433     0.10018931    -0.17839914    -0.17056936     0.59030802
O       5.15562986     3.65628543     9.63112105     0.17839914     0.17056936    -0.59030802
O       3.86605464     0.83457337     0.10015772    -0.90393516    -1.22611404    -0.57397328
O       2.68370189     4.80889634     9.63115264     0.90393516     1.22611404     0.57397328
O       4.58556786     0.83455069     4.96584487     0.17839914     0.17056936     0.59030802
O       1.96418862     4.80891908     4.76546576    -0.17839914    -0.17056936    -0.59030802
O       0.89003259     3.43267804     2.62866977     0.07509347     0.53622690     0.48271426
O       5.65972393     2.21079167     7.10264086    -0.07509347    -0.53622690    -0.48271426
O       3.34799676     2.21073896     2.23701650     0.81797569     0.46394314    -0.14837276
O       3.20175977     3.43273075     7.49429396    -0.81797569    -0.46394314     0.14837276
O       0.31997059     0.61094330     2.23698541     0.07509347     0.53622690    -0.48271426
O       6.22978594     5.03252647     7.49432506    -0.07509347    -0.53622690     0.48271426
O       2.63169776     0.61099595     7.10267190    -0.81797569    -0.46394314    -0.14837276
O       3.91805876     5.03247376     2.62863867     0.81797569     0.46394314     0.14837276
