# total energy = -19935.77443804 eV

CRYSTAL
PRIMVEC
        6.02073751     0.00000000     0.00000000
        0.95583894     6.33619494     0.00000000
        0.00000000     0.00000000    10.80639839
PRIMCOORD
24 1
Ti      2.74865702     3.75482319     4.00909676    -0.01884876    -1.55627518     0.79257858
Ti      4.22791936     2.58137157     6.79730187     0.01884876     1.55627518    -0.79257858
Ti      5.58190716     2.58137371     1.39405934    -0.03754609    -0.01377006    -0.31810523
Ti      1.39466923     3.75482129     9.41233942     0.03754609     0.01377006     0.31810523
Ti      2.27073768     0.58672583     1.39410268    -0.01884876    -1.55627518    -0.79257858
Ti      4.70583871     5.74946911     9.41229608     0.01884876     1.55627518     0.79257858
Ti      0.91674986     0.58672351     6.79725853     0.03754609     0.01377006    -0.31810523
Ti      6.05982653     5.74947143     4.00914010    -0.03754609    -0.01377006     0.31810523
O       2.24216855     2.23108187     5.51442243     1.61340588     1.73407654    -0.40901638
O       4.73440782     4.10511289     5.29197614    -1.61340588    -1.73407654     0.40901638
O       1.44137351     2.23110749     0.11125792    -0.95291186     0.55053227     0.57212003
O       5.53520293     4.10508733    10.69514041     0.95291186    -0.55053227    -0.57212003
O       4.25648847     0.93701535     0.11122287    -1.61340588    -1.73407654    -0.40901638
O       2.72008790     5.39917941    10.69517546     1.61340588     1.73407654     0.40901638
O       5.05728358     0.93698979     5.51445754     0.95291186    -0.55053227     0.57212003
O       1.91929274     5.39920504     5.29194109    -0.95291186     0.55053227    -0.57212003
O       0.80014273     3.85403293     2.91907785     0.40774189     0.77412371     1.04765036
O       6.17643364     2.48216177     7.88732078    -0.40774189    -0.77412371    -1.04765036
O       3.60356256     2.48210284     2.48415584     0.63637861     1.10136150     0.30268992
O       3.37301380     3.85409186     8.32224261    -0.63637861    -1.10136150    -0.30268992
O       0.32222338     0.68593539     2.48412128     0.40774189     0.77412371    -1.04765036
O       6.65435299     5.65025931     8.32227711    -0.40774189    -0.77412371     1.04765036
O       2.89509445     0.68599432     7.88735522    -0.63637861    -1.10136150     0.30268992
O       4.08148192     5.65020038     2.91904336     0.63637861     1.10136150    -0.30268992
