# total energy = -19940.30623632 eV

CRYSTAL
PRIMVEC
        5.83239834     0.00000000     0.00000000
        2.10807209     5.83851815     0.00000000
        0.00000000     0.00000000    10.60728775
PRIMCOORD
24 1
Ti      3.36320553     3.45990036     3.93522812     0.45541659    -2.59777726     0.92793899
Ti      4.57726511     2.37861764     6.67205975    -0.45541659     2.59777726    -0.92793899
Ti      5.88889827     2.37861962     1.36837346    -1.34329803    -0.78215455     0.41010808
Ti      2.05157240     3.45989855     9.23891452     1.34329803     0.78215455    -0.41010808
Ti      2.30916963     0.54064144     1.36841599     0.45541659    -2.59777726    -0.92793899
Ti      5.63130103     5.29787668     9.23887199    -0.45541659     2.59777726     0.92793899
Ti      0.99753638     0.54063929     6.67201722     1.34329803     0.78215455     0.41010808
Ti      6.94293429     5.29787888     3.93527064    -1.34329803    -0.78215455    -0.41010808
O       2.58827897     2.05584143     5.41281775     1.61515681     2.03883594    -0.87525758
O       5.35219167     3.78267657     5.19447012    -1.61515681    -2.03883594     0.87525758
O       1.81253894     2.05586498     0.10920800    -0.13926514    -0.57206809     1.21326547
O       6.12793177     3.78265307    10.49807957     0.13926514     0.57206809    -1.21326547
O       4.29815575     0.86341753     0.10917358    -1.61515681    -2.03883594    -0.87525758
O       3.64231489     4.97510047    10.49811399     1.61515681     2.03883594     0.87525758
O       5.07389584     0.86339397     5.41285217     0.13926514     0.57206809     1.21326547
O       2.86657474     4.97512404     5.19443570    -0.13926514    -0.57206809    -1.21326547
O       1.49415343     3.55131761     2.86529305     0.49544893     1.89529531     1.80087846
O       6.44631721     2.28720038     7.74199481    -0.49544893    -1.89529531    -1.80087846
O       3.95391887     2.28714600     2.43838460     1.05228247     1.44884545     0.64582947
O       3.98655177     3.55137200     8.16890310    -1.05228247    -1.44884545    -0.64582947
O       0.44011751     0.63205858     2.43835070     0.49544893     1.89529531    -1.80087846
O       7.50035313     5.20645942     8.16893699    -0.49544893    -1.89529531     1.80087846
O       2.93251585     0.63211296     7.74202859    -1.05228247    -1.44884545     0.64582947
O       5.00795479     5.20640503     2.86525922     1.05228247     1.44884545    -0.64582947
