# total energy = -4989.35508693 eV

CRYSTAL
PRIMVEC
        3.82646599     0.00000000     0.00000000
        1.12267149     3.65806652     0.00000000
       -2.47460328    -1.82905879     4.94055752
PRIMCOORD
6 1
Ti      0.84188652     2.74369013     1.23513909     0.00042012    -0.00042012     0.00000000
Ti      1.63264745    -0.91468257     3.70541769    -0.00042012     0.00042012     0.00000000
O       0.28070790     0.91451156     0.80477631    -0.00032936    -0.00026791    -0.93117729
O       2.19382590     0.91449592     4.13578047     0.00032936     0.00026791     0.93117729
O      -0.28067843    -0.91448978     3.27505491    -0.00026791    -0.00032936    -0.93117729
O       2.75521221     2.74349715     1.66550192     0.00026791     0.00032936     0.93117729
