# total energy = -4988.52022197 eV

CRYSTAL
PRIMVEC
        3.55594358     0.00000000     0.00000000
       -0.00000792     3.55594358     0.00000000
       -1.77799968    -1.77800363     4.53817486
PRIMCOORD
6 1
Ti     -0.00015659     2.66709237     1.13454359     0.00257213    -0.00288246     0.00023346
Ti      1.77809248    -0.88915252     3.40363097    -0.00257213     0.00288246    -0.00023346
O       0.00003552     0.88897985     0.73923155     0.00046434     0.00193296     1.40442937
O       1.77790027     0.88895989     3.79894306    -0.00046434    -0.00193296    -1.40442937
O      -0.00002008    -0.88896442     3.00831893     0.00193167     0.00034504     1.40586765
O       1.77795582     2.66690411     1.52985568    -0.00193167    -0.00034504    -1.40586765
