# total energy = -4987.82044174 eV

CRYSTAL
PRIMVEC
        3.72332502     0.00000000     0.00000000
        1.43204146     3.43691816     0.00000000
       -2.57771781    -1.71848212     4.85366318
PRIMCOORD
6 1
Ti      1.07393045     2.57782094     1.21341554     0.00068211    -0.00068211     0.00000000
Ti      1.50371834    -0.85938487     3.64024698    -0.00068211     0.00068211     0.00000000
O       0.35804907     0.85922504     0.79062195    -0.00002623     0.00008870    -1.61190256
O       2.21959954     0.85921096     4.06304062     0.00002623    -0.00008870     1.61190256
O      -0.35801692    -0.85920360     3.21745344     0.00008870    -0.00002623    -1.61190256
O       2.93566547     2.57763956     1.63620918    -0.00008870     0.00002623     1.61190256
