# total energy = -19958.73792962 eV

CRYSTAL
PRIMVEC
        5.93400000     0.00000000     0.00000000
        0.00000000     9.29699974     0.00000000
        0.00000000     0.00000000     4.64899994
PRIMCOORD
24 1
Ti      4.42155501     6.78416898     2.12157097    -0.26764782     3.75721821     1.25557890
Ti      4.46130601     2.57437302     2.24888901     0.83949018    -4.80258415    -0.20536823
Ti      1.48846400     6.94846301     2.29845302     0.43127983     2.52051173     0.43405225
Ti      1.50071901     2.31227402     2.48616002    -1.30123811    -3.03246201     0.49162699
Ti      3.08714901     4.63181602     0.00702102    -4.66396538     0.13136234     0.36643170
Ti      2.93953702     0.14701698     0.14062197     1.89162455    -0.32147595    -1.23795604
Ti      5.90364100     4.62524301     4.45502399     3.88418241    -0.26602520     0.53355295
Ti      5.92318298     9.24512498     0.19957899    -1.61643387     0.57772118    -2.69434099
O       4.50961000     5.53105402     0.79446698     0.10533274    -0.45833813    -0.14467371
O       4.51488701     0.84181401     1.13041997    -1.04084748     0.95012273    -0.01315325
O       1.47565198     5.56852802     0.86790699     0.14389596    -1.06946747    -1.07807681
O       1.42301901     0.74274202     1.11191798     0.62786928     1.27659793     0.43504393
O       4.47453100     8.61453001     3.82095503    -0.49745491    -1.23477995    -0.70004917
O       4.36506402     3.74986699     3.69950001     0.80238554     0.77518583     0.67043597
O       1.40672702     8.36443502     3.67216599     0.62982126    -0.45463446    -0.27176416
O       1.53708798     3.69182202     3.73059002    -0.68004187     2.05936286     0.97786649
O       3.05578600     5.95853599     3.17545800    -0.01129537     0.46701664    -0.39366098
O       2.88835500     1.50268500     3.48317399    -0.36695081     0.81338164    -1.29647822
O       0.04764299     6.01761900     3.05048898    -1.10386241    -1.28978512     1.41132533
O       5.83338600     1.55651000     3.28092499     0.59792595     0.86742291    -0.09332491
O       3.03528599     7.92398798     1.27017801     0.26029781    -3.09161334     2.31408446
O       2.85599301     3.06723400     1.38611599     0.76566606     1.90807113    -1.17482746
O       0.02382800     7.77899998     1.30012199    -0.36076576    -1.59658264     1.51075790
O       5.84584198     3.22697103     1.36029198     0.93073198     1.51377329    -1.09708293
