# total energy = -39036.56447227 eV

CRYSTAL
PRIMVEC
        7.60600008     0.00000000     0.00000000
        0.00000000     7.60600008     0.00000000
       -3.79573973    -3.79573973     9.71340985
PRIMCOORD
46 1
Ti      1.86334544     4.88822944     6.17532261     0.58688305     0.44520159     1.36523366
Ti      3.86096802     6.71446601     1.21924698     1.16676756    -0.24552604    -0.56657416
Ti      1.84905247     0.92468544     6.03996161    -0.65521117     0.00260479     0.58489970
Ti      3.85913098     2.72790798     1.06301100     0.40116552     0.60639105     0.83310355
Ti     -1.97569157     4.85943945     6.11676364    -0.29128218    -0.33645597     0.30386208
Ti      0.12755500     6.56270602     1.17970098    -0.58029383    -0.70311779     1.43356255
Ti     -2.12683253     1.01169647     6.07895763     1.06378276    -0.13052081    -0.30657074
Ti     -0.09380000     2.72285000     1.21471902     0.34291947     0.68145366    -1.05656413
Ti      3.63005148     0.87886345     8.56340863    -0.52715219    -1.41584224    -0.32153328
Ti      5.68146799     2.88662703     3.75110702     0.40606939    -0.74286423    -0.58091089
Ti      3.87989246    -3.03542056     8.58220061    -0.91644564     1.00859195    -1.63855437
Ti      5.78762201    -0.93716201     3.57668300     1.30262085     0.67974953     0.36251360
Ti     -0.13616757     0.80840546     8.30436864     0.84998208     0.63553914     0.87425382
Ti      1.91541500     3.11414001     3.34973401    -0.14038871    -1.56621584     2.18772729
Ti      0.02776545    -3.01184253     8.53991263     0.86185030     0.43740292    -0.11506102
Ti      2.13370501    -0.91293500     3.68686098    -0.86622503     1.28489874     0.61246348
O       2.07130348    -0.86753054     5.87612865    -0.08972588    -0.09183573    -1.00033845
O       3.88472401     0.91452000     0.77608802    -0.55022862    -0.28408027     0.02232721
O      -1.91002057     2.98261443     5.69617965    -0.44911352    -1.12386689    -0.62682516
O      -0.21363002     4.76293900     0.90001498     1.01869845    -1.07749163    -1.06209329
O      -2.19366958    -0.91833854     5.63226160     0.17979731    -0.00639485    -0.03242599
O       0.14530699     0.83713698     0.71237302     0.33145080     0.41324302     1.66677429
O       3.93922244     2.67461946     8.83477464     0.31833329     1.50352358     1.07434074
O       5.71538799     4.74492301     4.04517198     0.11118123     1.32892761    -0.23656446
O       3.63602446    -1.02705356     8.86304461     0.77589340     0.93735103     0.66019346
O       5.90929002     0.99547200     4.13073899    -0.79581354    -0.00058261     0.07393698
O      -0.10181958     2.68998047     9.02326265    -0.20829723    -0.30578373    -0.50696645
O       1.86188502     4.84934000     4.23486001     0.11889017    -0.84799487    -1.31027734
O       0.11859344    -0.99461653     8.80089761    -0.63225147     0.10388855     0.56588485
O       1.87116599     1.18903599     4.20749398     0.15031986     0.31429511    -0.44167352
O       1.72366747     1.00266447     8.03782163     1.70723267     0.17641862     0.36745603
O       3.84341998     2.72759598     3.08978902     0.05771075     0.81188012     0.27441189
O       1.98012745    -2.89826353     8.36618262    -1.79404472    -0.89957739    -1.27674140
O       3.98547999    -0.58280598     3.14320502    -1.40975721    -0.68887541     1.43365023
O      -1.90790354     0.76153845     8.01631460    -3.33697818    -0.16260408     0.48397538
O       0.00968199     2.76238298     3.14952302    -0.09490048     0.64176687     0.28849716
O      -1.87907455    -2.82442753     8.05450961     0.20703379     0.02112085     0.53758727
O       0.12561398    -0.78113097     3.08464600    -0.02173277    -0.42385346     1.04724336
O       3.72621044     4.59559247     6.61574064     0.24538772     0.00342137    -1.18849519
O       5.78890399     6.58954801     1.61915300    -0.38603457     0.01902026    -0.33289165
O       3.64514647     1.33106245     6.62104665     0.37283067    -0.42581598    -1.04487691
O       5.75941998     2.87081098     1.47686999    -2.04799704    -0.12108486     0.42248794
O       0.00009546     4.71315343     6.51612260     0.76146411    -0.10409244    -0.11916553
O       2.09113799     6.45522499     1.76852101    -0.60550402    -0.50608328    -0.81210740
O      -0.21396255     1.03227844     6.43012061     1.96621716     0.04815010    -0.98607885
O       1.88100901     3.04479303     1.56639699     1.09489569     0.10572097    -1.91309635
