# total energy = -19516.30982931 eV

CRYSTAL
PRIMVEC
        5.17600016     0.00000000     0.00000000
        0.00000000     5.50899976     0.00000000
        0.00000000     0.00000000     9.26300011
PRIMCOORD
23 1
Ti      1.80091898     3.31665699     3.46133601     0.91947568    -1.88511194     1.25681020
Ti      3.48175400     2.22905402     5.86891898     0.61718223    -1.22834396    -2.58007418
Ti      4.24903402     2.21231402     1.48217298    -0.50350112    -0.55075518    -1.15551512
Ti      0.84537399     3.40619098     7.70205898    -0.60092642    -0.89414362     2.01689697
Ti      1.89067501     0.20125600     1.37657101    -0.95524565     2.95580737    -2.56820082
Ti      3.22691398     4.98129997     8.04365899    -0.79557957     2.62643967     0.41822428
Ti      0.94167399     0.39455900     5.89709100    -1.55817574     1.74555009    -0.96980196
Ti      4.47155602     4.96354200     3.35654299    -0.04900833     1.06627133     2.74396716
O       1.82394899     1.97106699     4.78634203    -0.52923041     0.66416222     0.06611466
O       3.74823798     3.46570701     4.40059203    -0.61195158     0.64286088     0.36844693
O       5.15892499     2.80534598     0.09882502    -0.16841349     0.47538661    -1.88214797
O       3.33155502     0.87125901     0.12913200     0.40623779    -0.64760482     1.22089059
O       1.36799902     4.94542102     9.09004799     1.10082877    -1.52420066    -0.38763508
O       4.31087902     0.75306400     4.89740998    -0.36955456    -1.10038654    -2.00615464
O       1.09374000     4.94044701     4.36061702     0.51001373    -1.82911329    -1.14731947
O       0.19494202     3.61296402     2.42194500     0.53073425    -0.44433153     0.20861013
O       0.00876497     1.88244398     6.70911402     0.37984309     2.83944845     1.62446215
O       2.30331198     2.01130102     2.12265103     1.55726891     0.12738227    -0.12819525
O       2.74501401     3.28603901     7.23214398    -0.73890241     0.19149172     1.00891642
O       0.08043600     0.79139998     1.97483198    -0.25895569    -0.93135393     1.11309422
O       5.07828298     4.89387100     7.12130600    -1.57055638    -1.22926056    -0.02985952
O       2.47200803     0.70662800     6.90994298     1.23034685    -0.30035715    -0.04685477
O       2.84924198     4.54843298     2.28223199     1.45807006    -0.76983717     0.85532561
