# total energy = -19961.17125389 eV

CRYSTAL
PRIMVEC
        7.60600008     0.00000000     0.00000000
        0.00000000     7.60600008     0.00000000
       -1.89786986    -1.89786986     4.85670466
PRIMCOORD
24 1
Ti      3.75852502     6.59758600     1.27051701    -1.28673168     1.03949277     0.17422290
Ti      3.76353998     2.94814801     1.20829899     0.11821320    -0.87817989     1.08600044
Ti     -0.02755098     6.64827102     1.20917399     1.24019187    -1.55750494    -0.60379886
Ti      0.03071498     2.78846099     1.19509401     0.32833745     1.39717474    -0.70116066
Ti      5.76533222     2.85829922     3.57381179    -1.24234362    -0.27005978     0.61665875
Ti      5.77087223    -0.98864476     3.60998179    -0.82334467     0.12732622     0.04920399
Ti      1.82446324     2.89914323     3.68038279     1.57409396     0.43819045    -0.81432704
Ti      1.83914823    -0.93694076     3.72647683     0.98784803    -0.35584235    -0.38819198
O       3.65801802     4.81294101     0.85083801     0.50854537    -0.39541910    -0.88311693
O       3.67333600     1.07077000     0.81537398     0.60852455    -1.35725964     0.06577836
O       0.14692199     4.67221199     0.67244702    -0.55677928    -0.16611107     0.89623702
O       0.13700500     0.84837099     0.73937900    -0.58920065     1.25506442    -0.03012588
O       5.94370421     4.64829624     4.10160482    -0.50229501     1.84349322    -0.32891724
O       5.77381223     0.94273821     3.89990780    -0.40425110    -1.56580446     0.60553307
O       1.66799622     4.77947521     4.01698181     0.53065661     0.12916481     1.25556887
O       1.90135725     1.03414120     4.05063880     0.22597100    -0.35153035     0.16864900
O       3.80501224     3.03751721     3.24658879     0.27937617    -0.35409940    -0.45378856
O       3.75434823    -1.20060380     3.24178381     0.83633415     0.85538937     0.22761573
O       0.04523920     2.86324025     3.17313782    -0.05069755    -0.53977117    -0.53922481
O       0.02368021    -0.92373175     3.19183784    -1.42396282     0.18862391    -0.03084502
O       5.63126198     6.56817502     1.58488502     1.21235041     0.22811684     0.31556472
O       5.81043701     2.98631799     1.61307201    -0.90867859    -0.50941980    -0.64599737
O       1.86196101     6.50017002     1.71084100    -0.00529905     0.87894660    -0.29435903
O       1.94229599     2.86924398     1.61898001    -0.65685874    -0.07998088     0.25282027
