# total energy = -4976.56996689 eV

CRYSTAL
PRIMVEC
        3.79752022     0.00000000     0.00000000
        0.00000000     5.95014486     0.00000000
        0.00000000    -0.00007722     5.95014486
PRIMCOORD
6 1
Ti      1.89876004     2.97503375     2.97507236     0.00000000     0.00000000     0.00000000
Ti      0.00000000     0.00000000     0.00000000     0.00000000     0.00000000     0.00000000
O       1.89876004     1.15958053     1.15959558     0.00000000    -0.96061206    -0.96061206
O       1.89876004     4.79048698     4.79054915     0.00000000     0.96061206     0.96061206
O       0.00000000     1.81542192     4.13466915     0.00000000     0.96055524    -0.96055524
O       0.00000000     4.13464559     1.81547558     0.00000000    -0.96055524     0.96055524
