# total energy = -19930.97395143 eV

CRYSTAL
PRIMVEC
        4.69443109     0.00000000     0.00000000
        1.22988112     4.84255600     0.00000000
        0.00000000     0.00000000     8.46944791
PRIMCOORD
24 1
Ti      2.43033195     2.86969434     3.14210493     3.40719761    -1.15912136     0.47808113
Ti      3.49398040     1.97286197     5.32734346    -3.40719761     1.15912136    -0.47808113
Ti      4.54969881     1.97286365     1.09258545    -5.87196908     0.35814272     2.81469026
Ti      1.37461356     2.86969286     7.37686303     5.87196908    -0.35814272    -2.81469026
Ti      1.81539149     0.44841638     1.09261941     3.40735316    -1.16055629    -0.47588772
Ti      4.10892088     4.39414013     7.37682908    -3.40735316     1.16055629     0.47588772
Ti      0.75967300     0.44841452     5.32730950     5.87230384    -0.35886186     2.80869856
Ti      5.16463936     4.39414194     3.14213889    -5.87230384     0.35886186    -2.80869856
O       1.91887914     1.70514639     4.32189464    -2.68724063    -1.57672626    -0.93273358
O       4.00543316     3.13740993     4.14755375     2.68724063     1.57672626     0.93273358
O       1.29449296     1.70516594     0.08719774     2.25746669    -1.40355391    -1.00653430
O       4.62981945     3.13739047     8.38225041    -2.25746669     1.40355391     1.00653430
O       3.39049268     0.71613182     0.08717026     2.68778442     1.57713223    -0.93260837
O       2.53381966     4.12642449     8.38227789    -2.68778442    -1.57713223     0.93260837
O       4.01487896     0.71611232     4.32192212    -2.25683009     1.40311759    -1.00626664
O       1.90943334     4.12644405     4.14752627     2.25683009    -1.40311759     1.00626664
O       0.91864296     2.94551718     2.28780931    -1.03471154    -2.69636162    -3.32400927
O       5.00566934     1.89703914     6.18163908     1.03471154     2.69636162     3.32400927
O       2.99957071     1.89699398     1.94694184     1.22833162    -3.44777169    -3.12787465
O       2.92474164     2.94556238     6.52250640    -1.22833162     3.44777169     3.12787465
O       0.30370248     0.52423907     1.94691479    -1.03444440    -2.69595976     3.32431704
O       5.62060987     4.31831729     6.52253346     1.03444440     2.69595976    -3.32431704
O       2.30980115     0.52428423     6.18166608    -1.22765465     3.44735028    -3.12819090
O       3.61451119     4.31827209     2.28778226     1.22765465    -3.44735028     3.12819090
