# total energy = -39038.85426649 eV

CRYSTAL
PRIMVEC
        5.93188753     0.00000000     0.00000000
        0.00000000     9.29428401     0.00000000
        0.00000000    -0.00005292     9.29428401
PRIMCOORD
46 1
Ti      4.44891576     6.97067316     6.97071285     0.00000000     0.00000000     0.00000000
Ti      4.44891576     6.97069962     2.32357084    -0.00000000     0.00000000     0.00000000
Ti      4.44891576     2.32353116     6.97071285     0.00000000     0.00000000     0.00000000
Ti      4.44891576     2.32355761     2.32357084     0.00000000     0.00000000     0.00000000
Ti      1.48297199     6.97067316     6.97071285     0.00000000     0.00000000     0.00000000
Ti      1.48297199     6.97069962     2.32357084    -0.00000000     0.00000000     0.00000000
Ti      1.48297199     2.32353116     6.97071285     0.00000000     0.00000000     0.00000000
Ti      1.48297199     2.32355761     2.32357084     0.00000000    -0.00000000    -0.00000000
Ti      2.96594376     4.64914051     4.64327438    -0.00000000     0.00040752     0.01372712
Ti      2.96594376     4.76197897    -0.11483632     0.00000000     0.00669438    -0.00669438
Ti      2.96594376     0.04113777     4.60597801     0.00000000    -0.02628748     0.02628748
Ti      2.96594376     0.00386763    -0.00202495     0.00000000    -0.01372712    -0.00040752
Ti      0.00000000     4.64324791     4.64916695     0.00000000     0.01372712     0.00040752
Ti      0.00000000     4.60597778     0.04116399     0.00000000     0.02628748    -0.02628748
Ti      0.00000000    -0.11486343     4.76197832     0.00000000    -0.00669438     0.00669438
Ti      0.00000000    -0.00202497     0.00386762    -0.00000000    -0.00040752    -0.01372712
O       4.44891576     5.55732447     5.55735611     0.00000000    -0.00525559    -0.00525559
O       4.41544146     5.48056526     0.96392667     0.00479845    -0.01212481     0.00126138
O       4.48239005     0.96389547     5.48057075    -0.00479845     0.00126138    -0.01212481
O       4.44891576     0.93895462     0.93895997     0.00000000    -0.01500599    -0.01500599
O       1.48297199     5.55732447     5.55735611     0.00000000    -0.00525559    -0.00525559
O       1.51644628     5.48056526     0.96392667    -0.00479845    -0.01212481     0.00126138
O       1.44949770     0.96389547     5.48057075     0.00479845     0.00126138    -0.01212481
O       1.48297199     0.93895462     0.93895997     0.00000000    -0.01500599    -0.01500599
O       4.44891576     8.38402191     8.38406964     0.00000000     0.00525559     0.00525559
O       4.48239005     8.46083403     3.68321507    -0.00479845     0.01212481    -0.00126138
O       4.41544146     3.68316690     8.46085500     0.00479845    -0.00126138     0.01212481
O       4.44891576     3.70816066     3.70818178     0.00000000     0.01500599     0.01500599
O       1.48297199     8.38402191     8.38406964     0.00000000     0.00525559     0.00525559
O       1.44949770     8.46083403     3.68321507     0.00479845     0.01212481    -0.00126138
O       1.51644628     3.68316690     8.46085500    -0.00479845    -0.00126138     0.01212481
O       1.48297199     3.70816066     3.70818178     0.00000000     0.01500599     0.01500599
O       2.96594376     6.06095559     7.88042525     0.00000000     0.01912439    -0.01912439
O       2.96594376     6.09464633     3.26625821    -0.00000000    -0.00561066    -0.01510652
O       2.96594376     1.38083881     7.84676076     0.00000000     0.01510652     0.00561066
O       2.96594376     1.45686241     3.19026113     0.00000000    -0.00423101     0.00423101
O       0.00000000     6.03459751     7.90678318    -0.00000000    -0.02630368     0.02630368
O       0.00000000     6.07430370     3.24853958     0.00000000     0.01569968     0.00766626
O       0.00000000     1.39855733     7.86710350    -0.00000000    -0.00766626    -0.01569968
O       2.96594376     7.90674882     6.03464253    -0.00000000     0.02630368    -0.02630368
O       2.96594376     7.86709553     1.39860212     0.00000000    -0.01569968    -0.00766626
O       2.96594376     3.24850499     6.07432220    -0.00000000     0.00766626     0.01569968
O       0.00000000     7.88039074     6.06100046     0.00000000    -0.01912439     0.01912439
O       0.00000000     7.84675290     1.38088349    -0.00000000     0.00561066     0.01510652
O       0.00000000     3.26622351     6.09466493     0.00000000    -0.01510652    -0.00561066
O       0.00000000     3.19025283     1.45688057     0.00000000     0.00423101    -0.00423101
