# total energy = -19073.62317720 eV

CRYSTAL
PRIMVEC
        5.17600016     0.00000000     0.00000000
        0.00000000     5.50899976     0.00000000
        0.00000000     0.00000000     9.26300011
PRIMCOORD
22 1
Ti      2.05361599     3.43756902     3.31206902     0.09173391    -0.30888705     0.62506446
Ti      3.54558198     2.12623202     5.86110901    -0.67670869     0.26187827    -0.08576946
Ti      4.54434101     2.32523299     1.24964398    -0.81225138    -0.26523330    -1.27841544
Ti      0.54129800     3.15979901     8.02908798     0.01376723    -0.11438919    -0.29307990
Ti      1.88504801     0.38025502     1.31222099     0.36331989     0.78073659    -1.79554110
Ti      3.15619801     5.18408699     8.01629502    -0.01002653     0.97288831     0.59353630
Ti      0.66611599     0.11534699     6.08817601     0.14953670     0.82272735     0.78903509
Ti      4.63673801     5.06928601     3.20916500     1.19618125    -0.83511313     2.84790224
O       3.70175700     3.34225202     4.33600499    -0.56106994     0.17855830     1.34665820
O       0.78526898     1.87794401     0.17348198     0.57883087     0.33483000    -0.22872594
O       4.21849102     3.83517402     8.92094999    -0.38383679    -1.39940569     0.35413437
O       3.49871698     0.73443500     0.27459299    -0.78647658     1.03962004     0.05051243
O       1.58772199     4.68041598     9.10018301     0.26181090    -0.06757376     0.11968695
O       4.43630001     0.79642600     4.92671201    -0.93571246    -0.37664721    -1.51083580
O       1.04354902     4.89261299     4.36182302     0.77877355    -1.38209805    -0.73341465
O       0.44489498     3.61163002     2.15813300    -0.72930679     0.38478450     1.19744803
O       4.57944801     1.35126501     7.22507602     1.23995533     0.14175603     0.39393172
O       2.64257000     1.89824902     2.40879299     0.41236602     0.34788453    -0.62521847
O       1.56359600     4.06356602     6.70341499     1.18502471    -0.38891832     0.22272678
O       0.21208302     0.81435299     2.17299700    -0.31983610     0.46524720     0.60038109
O       2.08679699     1.26997000     6.98274300    -0.23907129    -0.70159801    -1.35832665
O       3.00409898     4.75604102     2.43007401    -0.81700279     0.10895285    -1.23169025
