# total energy = -4984.18004416 eV

CRYSTAL
PRIMVEC
        4.21420790     0.00000000     0.00000000
        1.98314935     3.71842263     0.00000000
       -3.09871822    -1.85923507     5.56553359
PRIMCOORD
6 1
Ti      1.48726258     2.78896017     1.39138303     0.00054122    -0.00054122     0.00000000
Ti      1.61137629    -0.92977276     4.17414988    -0.00054122     0.00054122    -0.00000000
O       0.49583101     0.92960092     0.90657983    -0.00051551    -0.00065717    -2.17316765
O       2.60280769     0.92958648     4.65895314     0.00051551     0.00065717     2.17316765
O      -0.49579096    -0.92957684     3.68934662    -0.00065717    -0.00051551    -2.17316765
O       3.59442957     2.78876415     1.87618629     0.00065717     0.00051551     2.17316765
