# total energy = -4986.14295550 eV

CRYSTAL
PRIMVEC
        2.93660191     0.00000000     0.00000000
        1.56257135     4.32776496     0.00000000
       -0.00001015    -0.00006097     4.67552481
PRIMCOORD
6 1
Ti      2.24958154     2.16385195     2.33776240     0.00000000     0.00000000     0.00000000
Ti      0.00000000     0.00000000     0.00000000     0.00000000     0.00000000     0.00000000
O       1.77282109     0.84340576     0.91119093    -3.69040755     1.75973385     1.97006328
O       2.72634200     3.48429813     3.76433393     3.69040755    -1.75973385    -1.97006328
O       0.47675619     1.32042154     3.24895427     3.68966013    -1.75813411     1.96853861
O       1.08580509     3.00728233     1.42657059    -3.68966013     1.75813411    -1.96853861
