# total energy = -19073.66700755 eV

CRYSTAL
PRIMVEC
        5.93400000     0.00000000     0.00000000
        0.00000000     9.29699974     0.00000000
        0.00000000     0.00000000     4.64899994
PRIMCOORD
22 1
Ti      4.55798098     6.69470500     2.43295400    -0.63914743     1.40253447    -0.96580981
Ti      4.26734202     2.41958201     2.17814500     0.18796571     0.67054884     0.23761476
Ti      1.62849298     7.24967599     2.47449399     1.99287925    -3.01027081    -2.95861424
Ti      1.44204500     2.39842000     2.08207102    -0.48731782     0.84072379     1.54734496
Ti      2.89945301     4.62138203     4.60077099     1.14896524    -0.00835866    -0.96091957
Ti      3.01099998     0.16491301     4.60543601     1.27282869    -0.86234549     0.52898282
Ti      5.84621500     4.52142499     4.56276099    -0.45342064    -0.16814455    -0.10146965
Ti      5.90938400     8.98216802     0.20565998    -1.62222503     1.14081561     0.38105974
O       4.46977798     5.53796301     0.95901999    -0.45460335    -0.35325428    -0.54606498
O       4.65851799     1.12938898     0.96282700    -0.22122088    -1.73918198    -1.32341439
O       1.52135798     1.13227400     0.82097199    -0.73863965    -1.79287718    -0.91269620
O       4.43227202     8.17914101     3.95943500     0.74212581     1.46737771    -0.74030058
O       4.39540402     3.55631301     3.91920202    -0.45278352     0.07089434    -0.94744878
O       1.27908100     8.45640301     3.55120999     0.31879711     3.83635602     2.81988878
O       1.45670601     3.74229198     3.61795401     0.06375515     0.26320213     1.77172522
O       3.00658399     6.09189702     3.24900501    -1.22001513    -0.81492945     0.64199801
O       3.08080602     1.34510898     3.13020001    -0.71669656     0.10854970     0.25462261
O       0.08200999     6.06759101     3.41891600     0.82120603    -0.14427931    -0.45223587
O       3.24592197     7.97484298     1.50211402    -1.96411246    -0.19080138     0.51503689
O       2.74781902     3.61894098     1.50633601     0.76029580    -0.36279359    -0.01229245
O       0.13254303     7.52230202     1.25632802     0.84503476     0.21336770     1.02874118
O       5.85683897     3.45690600     1.48418603     0.81632890    -0.56713389     0.19425180
