# total energy = -4986.81903923 eV

CRYSTAL
PRIMVEC
        3.22273236     0.00000000     0.00000000
        1.71482189     4.74944463     0.00000000
       -0.00001114    -0.00006691     5.13108876
PRIMCOORD
6 1
Ti      2.46877154     2.37468880     2.56554438     0.00000000     0.00000000     0.00000000
Ti      0.00000000     0.00000000     0.00000000     0.00000000     0.00000000     0.00000000
O       1.94555750     0.92558376     0.99997364     0.11391945     0.19544299    -0.19283667
O       2.99198558     3.82379385     4.13111518    -0.11391945    -0.19544299     0.19283667
O       0.52320935     1.44907800     3.56551904    -0.11368008    -0.19552013    -0.19229108
O       1.19160148     3.30029958     1.56556978     0.11368008     0.19552013     0.19229108
