# total energy = -19960.42464406 eV

CRYSTAL
PRIMVEC
        5.93400000     0.00000000     0.00000000
        0.00000000     9.29699974     0.00000000
        0.00000000     0.00000000     4.64899994
PRIMCOORD
24 1
Ti      4.46436900     7.08053401     2.18880400    -1.30737842    -1.30277897     0.54833706
Ti      4.45630598     2.22850701     2.37168798     0.58711882     1.18708314    -0.37155591
Ti      1.49192403     6.96629898     2.37497602     1.44560483    -0.29759502     1.00811835
Ti      1.48266602     2.23577700     2.29713003    -0.75312113     0.62444714    -0.56131574
Ti      2.98157402     4.61102200     0.10567601     0.50228499    -0.57806597    -0.71646002
Ti      2.99100401     0.03938502     4.59941900    -1.70947082     0.50993042     1.14659905
Ti      0.04649902     4.66953102     4.57143801    -0.27503049    -1.11915663    -0.37539457
Ti      5.87831399     9.28265899     0.05400598     1.63041939     1.30622451    -0.29332236
O       4.45763998     5.50533198     0.95404901    -0.00599427     0.76422676     0.31101181
O       4.38686702     0.88384401     0.97081303     0.87774949     0.56446020     0.53531030
O       1.47377102     5.54375200     0.84839999    -0.16635378     0.48100653     0.92006241
O       1.43712301     0.93517400     0.83404198     0.01162756     0.27189195     1.02976988
O       4.42135001     8.51822202     3.87593998     1.25275685    -2.26911020    -2.62651989
O       4.42605699     3.78980702     3.72856100    -0.18781119    -0.27202359     0.09080831
O       1.60499201     8.45118802     3.78597800    -2.33517009    -1.48259736    -1.33540140
O       1.44527001     3.78662301     3.58602700     0.22271135     0.45534151     1.47487428
O       2.98860499     6.21691901     3.31954302    -0.31194281    -0.00365328    -0.99558191
O       2.91834898     1.34313701     3.28577500     0.57474384     1.37643725    -1.11773352
O       5.88199500     6.07680102     3.22719402     0.47061567     0.98772950    -0.49124261
O       5.88756697     1.42645300     3.22212699     0.14137190    -0.87610347     0.85393207
O       2.97076298     7.82716601     1.32249999    -0.06375644    -0.37309703     1.22720522
O       2.92886601     3.15257701     1.40151002     0.31746117     0.58454361    -0.32547530
O       0.02467501     8.01898297     1.44499098    -0.05522372    -1.26433428     0.88792952
O       0.03551801     3.12439499     1.45642100    -0.86321247     0.72519226    -0.82395505
