# total energy = -4976.62084907 eV

CRYSTAL
PRIMVEC
        4.67273024     0.00000000     0.00000000
        0.00000000     2.44048938     0.00000000
        0.00000000    -0.00012872     6.50797076
PRIMCOORD
6 1
Ti      2.33636490     1.22018027     3.25398538     0.00000000     0.00000000     0.00000000
Ti      0.00000000     0.00000000     0.00000000     0.00000000     0.00000000     0.00000000
O       2.33636490     0.47559034     1.26830766     0.00000000    -0.08929059     2.10002436
O       2.33636490     1.96477026     5.23966315     0.00000000     0.08929059    -2.10002436
O       0.00000000     0.74453937     4.52229436     0.00000000     0.08928776     2.09865165
O       0.00000000     1.69582123     1.98567639     0.00000000    -0.08928776    -2.09865165
