# total energy = -4985.56063679 eV

CRYSTAL
PRIMVEC
        4.15160954     0.00000000     0.00000000
        1.77819498     3.75151761     0.00000000
       -2.96494156    -1.87578367     5.44479385
PRIMCOORD
6 1
Ti      1.33354136     2.81378260     1.36119841     0.00020672    -0.00020672     0.00000000
Ti      1.63132188    -0.93804844     4.08359510    -0.00020672     0.00020672     0.00000000
O       0.44459187     0.93787448     0.88691236    -0.00054302    -0.00072608    -1.98290646
O       2.52027122     0.93785955     4.55788121     0.00054302     0.00072608     1.98290646
O      -0.44455446    -0.93785086     3.60930911    -0.00072608    -0.00054302    -1.98290646
O       3.40941748     2.81358484     1.83548445     0.00072608     0.00054302     1.98290646
