# total energy = -4987.70680355 eV

CRYSTAL
PRIMVEC
        3.59572432     0.00000000     0.00000000
        1.05497271     3.43747960     0.00000000
       -2.32538097    -1.71876379     4.64263445
PRIMCOORD
6 1
Ti      0.79111950     2.57824148     1.16065834     0.00063789    -0.00063789     0.00000000
Ti      1.53419634    -0.85952583     3.48197542    -0.00063789     0.00063789     0.00000000
O       0.26378079     0.85936513     0.75624709     0.00027279     0.00096622    -0.21740665
O       2.06153489     0.85935044     3.88638667    -0.00027279    -0.00096622     0.21740665
O      -0.26375309    -0.85934467     3.07756416     0.00096622     0.00027279    -0.21740665
O       2.58906876     2.57806014     1.56506964    -0.00096622    -0.00027279     0.21740665
