# total energy = -19960.34537577 eV

CRYSTAL
PRIMVEC
        7.60600008     0.00000000     0.00000000
        0.00000000     7.60600008     0.00000000
       -1.89786986    -1.89786986     4.85670466
PRIMCOORD
24 1
Ti      3.93573500     6.53417802     1.22403699    -2.16842267     1.14106501    -0.47007317
Ti      3.79012802     2.75715799     1.23555802    -0.01599458    -0.96350995    -1.66149247
Ti     -0.01347899     6.69791499     1.11812698     2.10417850     0.71488804     2.06098755
Ti     -0.03943799     2.96692100     1.24473401    -0.21884930    -0.43685244     0.22038707
Ti      5.61232723     2.84114022     3.60044480     2.34442015     0.20166558     0.62347038
Ti      5.69720424    -0.89221978     3.65557084     0.73575692    -0.49189953    -0.00650618
Ti      1.94254020     2.77270823     3.61173083    -2.10308038     0.14108960     0.72316031
Ti      1.97309024    -0.97784277     3.65100980    -0.99931052     0.01704333    -1.16165955
O       3.82225701     4.57505102     0.83158300     0.35601564     1.84335849    -0.56028884
O       3.83500098     0.85233802     0.81544198     0.16092541     1.62665633     0.08745559
O      -0.11977901     4.85095499     0.86727500     0.24774748    -2.92277305    -1.15993717
O      -0.12457002     0.92585799     0.89063701     0.60166485     1.98068734    -1.29388989
O       5.50554323     4.81406425     4.08956482     0.30866619    -0.34060959    -1.27335705
O       5.58045123     0.96391123     3.97152082     0.86446151     1.05243005     1.51799607
O       1.92330525     4.81716925     4.08701582     0.84013527    -2.73252292     0.10979103
O       1.82749125     0.90608422     4.03334979     0.27941345     1.41809659     0.34948890
O       3.85310720     2.88218622     3.13738582    -2.19164180    -0.06125707     0.77092886
O       3.82805621    -0.60524378     3.17571682     0.93433744    -1.53706415    -0.14232784
O       0.00292222     2.96566224     3.36376880    -0.48636291    -0.14980718    -0.98511546
O       0.12580723    -0.96956279     3.23508580    -2.26749709     0.17282705     0.03381568
O       5.76040399     6.55686999     1.58221601    -0.85107557     0.03312611     1.29460466
O       5.69861498     2.67502899     1.61496800     0.12543594     0.72032953     0.58757134
O       1.95930502     6.72486800     1.59855499     0.02475536    -0.86658627    -0.02559740
O       1.78068700     2.91619697     1.63071801     1.37431994    -0.56038088     0.36058758
