# total energy = -19947.66335047 eV

CRYSTAL
PRIMVEC
        4.80101914     0.00000000     0.00000000
        0.76219915     5.05256924     0.00000000
        0.00000000     0.00000000     8.61717113
PRIMCOORD
24 1
Ti      2.19181702     2.99414780     3.19690906     1.65496727    -0.17732391     0.04956060
Ti      3.37140121     2.05842129     5.42026227    -1.65496727     0.17732391    -0.04956060
Ti      4.45108976     2.05842300     1.11164215    -2.45377178    -0.68781586     1.76751864
Ti      1.11212848     2.99414629     7.50552928     2.45377178     0.68781586    -1.76751864
Ti      1.81071754     0.46786327     1.11167670     1.65503283    -0.17840197    -0.05871450
Ti      3.75250070     4.58470597     7.50549472    -1.65503283     0.17840197     0.05871450
Ti      0.73102898     0.46786142     5.42022771     2.45415770     0.68681724     1.77789690
Ti      4.83218926     4.58470782     3.19694361    -2.45415770    -0.68681724    -1.77789690
O       1.78793613     1.77909546     4.39727651    -1.69327389    -1.14537572    -0.56045416
O       3.77528210     3.27347364     4.21989477     1.69327389     1.14537572     0.56045416
O       1.14937112     1.77911588     0.08871860     1.64141009    -1.43528133    -0.18416819
O       4.41384717     3.27345326     8.52845248    -1.64141009     1.43528133     0.18416819
O       3.39418262     0.74718896     0.08869065     1.69454427     1.14643501    -0.56033358
O       2.16903561     4.30538014     8.52848043    -1.69454427    -1.14643501     0.56033358
O       4.03274768     0.74716858     4.39730451    -1.64010166     1.43447169    -0.18350201
O       1.53047050     4.30540057     4.21986682     1.64010166    -1.43447169     0.18350201
O       0.63804485     3.07325902     2.32771294    -0.90328107    -0.88689362    -1.61331615
O       4.92517338     1.97931003     6.28945838     0.90328107     0.88689362     1.61331615
O       2.87353049     1.97926304     1.98090013     0.34230986    -1.63298536    -1.16096432
O       2.68968773     3.07330601     6.63627105    -0.34230986     1.63298536     1.16096432
O       0.25694537     0.54697434     1.98087257    -0.90225854    -0.88632721     1.61552447
O       5.30627286     4.50559470     6.63629856     0.90225854     0.88632721    -1.61552447
O       2.30858825     0.54702133     6.28948584    -0.34093535     1.63201091    -1.16331894
O       3.25462998     4.50554771     2.32768543     0.34093535    -1.63201091     1.16331894
