# total energy = -19517.61884373 eV

CRYSTAL
PRIMVEC
        7.60600008     0.00000000     0.00000000
        0.00000000     7.60600008     0.00000000
       -1.89786986    -1.89786986     4.85670466
PRIMCOORD
23 1
Ti      3.83116698     6.64195201     1.21428399     0.33409904    -1.16638190    -0.48908777
Ti      3.82190400     2.84211401     1.15256102     0.01587271     0.68190772     2.07827154
Ti      0.07632398     6.74153999     1.21449597    -1.12371854    -0.98097289     0.01559426
Ti     -0.06991500     2.85597502     1.18141102     2.64300941     2.06015682    -1.23640926
Ti      5.61236623     2.94380225     3.57053883    -1.15861125    -0.85029138     2.63590674
Ti      5.66616921    -0.94564377     3.65736782     1.53354765     1.14209859    -0.51618463
Ti      1.83000225     2.68791425     3.58877480     1.64869197     1.13716001     1.36438288
Ti      1.88127323    -1.00839175     3.65836881    -1.10494922    -0.85212972    -0.99146814
O       3.77382698     4.66249000     0.76319398    -0.27144997     0.42363183    -0.06068680
O       3.82554802     0.88948901     1.00113800     0.01648489     0.27797955    -1.23794035
O       0.08839001     4.73702498     0.69709302     0.13023028     0.54118399    -0.05706463
O       0.16621500     1.05223102     0.91616097    -0.31990860    -2.29816367    -0.88988716
O       5.75314024     4.77875225     4.09667579     0.23822951     0.74139870    -0.19325164
O       5.46939920     0.95562823     4.11510280     0.32980298    -0.35998440    -1.45786283
O       1.75482320     4.75290025     3.94250080    -0.06446966     0.06219604     1.40098795
O       2.23205720     0.86941425     4.03105083    -0.89023400     0.08813873     0.56562157
O       3.73647124     3.02863920     3.25069282     1.12609989    -0.39436726    -0.83160023
O       3.88673022    -1.00017278     3.09834280    -1.35443065    -0.32162353     0.69031317
O       0.02293523    -0.61824477     3.36379880     0.29410012    -0.63724815    -0.38672620
O       5.82890101     6.40455600     1.61629200    -1.08415696     0.83695250     0.48129192
O       5.84840098     2.92625902     1.66787599    -3.13049487    -0.20188927     0.35039932
O       1.79470300     6.42633302     1.63282699     2.52742054     0.59347176     0.96261110
O       1.82490098     2.96001798     1.82708198    -0.33516528    -0.52322354    -2.19721133
