# total energy = -19518.18271569 eV

CRYSTAL
PRIMVEC
        5.93400000     0.00000000     0.00000000
        0.00000000     9.29699974     0.00000000
        0.00000000     0.00000000     4.64899994
PRIMCOORD
23 1
Ti      4.52586199     7.06472801     2.25266501     0.79202605     0.28186886    -0.21265036
Ti      4.43259503     2.28043798     2.40188802     0.77797008     0.11391894    -0.31907376
Ti      1.44486101     7.03995701     2.17101502    -0.31217189     0.57937466     0.68610608
Ti      1.46067198     2.27515001     2.29504798    -0.73419858     0.15971185     0.28173619
Ti      2.95013602     4.42016502     0.20967500     0.35007459     0.77809118    -0.83165576
Ti      2.95554501     9.29582100     4.58181798    -0.16153707    -0.71396270    -0.13416150
Ti      0.00571802     4.64129401     4.64557098    -0.19768500    -0.22786436    -0.10553354
Ti      5.89353398     0.14791499     4.60975801     0.18890005    -1.04453136     0.35669364
O       4.40946897     5.55870300     1.00698499    -0.17275583    -0.09572478    -0.81576223
O       4.43304001     0.95077102     0.93857502     0.20664272    -0.38042982    -0.48351078
O       1.52290000     5.51491602     0.94535701    -0.08892549     0.27549458    -0.45829442
O       1.53970302     0.95525802     0.93577101    -0.22225755    -0.39617449    -0.57322123
O       4.52776999     8.43128100     3.66996001    -0.36713516    -0.15611436     0.49623389
O       4.38375599     3.55835399     3.82954098     0.21741745     1.75024364     0.35888628
O       1.45838498     8.34705900     3.57324102     0.66669115     0.85732721     1.66381315
O       1.50444002     3.69642099     3.76291502     0.02853206     0.66830761     0.22218068
O       3.00237899     1.33063302     3.20620002    -0.71728097     0.14814753     0.13094788
O       0.03509800     6.13274898     3.17445399    -0.19528384    -1.04673479     0.74656405
O       0.00647898     1.48931799     3.33901801     0.31256450    -0.00562455    -0.64755545
O       3.02131301     7.96089101     1.41376698    -0.07294402    -1.01570722     0.05754285
O       2.95537498     3.25592300     1.50627801     0.01819390    -0.86239229     0.83568443
O       0.06310201     7.92398201     1.42011801    -0.77978811     0.46589332    -1.26156880
O       5.89556898     3.27242799     1.44570600     0.46295069    -0.13311866     0.00659848
