# total energy = -19073.78493807 eV

CRYSTAL
PRIMVEC
        5.93400000     0.00000000     0.00000000
        0.00000000     9.29699974     0.00000000
        0.00000000     0.00000000     4.64899994
PRIMCOORD
22 1
Ti      4.45475400     6.97813800     2.46458801    -0.36484353    -0.46509448    -0.48213524
Ti      4.41278998     2.42956499     2.11612098     0.42940755    -1.10146640     0.47017704
Ti      1.46836902     7.14233101     2.46055001     0.60452983    -0.28580753    -0.10453647
Ti      1.57151303     2.35385100     2.23688701     0.06849756    -0.83380804     0.10293878
Ti      2.95685202     4.53458002     4.46632600     0.14848615     0.91686575     0.22377965
Ti      2.98169599     9.24658598     0.11189501     0.48837043     1.10712772     0.21033431
Ti      5.77899298     4.63484900     4.54353000    -0.28413657     0.12586892     0.41522817
Ti      0.03024502     9.13572499     0.11294600    -0.62633150     0.55325198     0.39649691
O       4.49331600     5.58743600     0.93462799    -0.29014781    -0.67583657     0.51281931
O       4.48661598     0.84216702     1.00889500     0.58754871    -0.01986975    -0.78695918
O       1.37071799     0.66330098     1.22176200     0.46639752     1.58403745    -0.82847428
O       4.44738601     8.26811999     3.90246102    -0.33417206     0.89782956    -0.30439610
O       4.36897501     3.95442401     3.42642799     0.92769987    -0.74847515    -0.23119034
O       1.56845200     8.43085200     3.70788302    -0.58740782     1.67702374     1.32227257
O       1.48034102     3.90999503     3.58688897    -0.24882271    -0.74324244    -0.35250969
O       2.91514899     6.17153698     3.34823501    -0.14877385    -0.89835201    -0.08171714
O       3.06510502     1.43801499     3.24080298    -0.25769431     0.60900766     0.21161087
O       0.18016501     6.31537101     3.59948001    -0.56949056    -1.23272410    -1.06836421
O       2.98750800     8.00476298     1.60975301     0.70115243    -0.95375339    -0.85677905
O       2.97466799     2.90121501     1.11299300    -0.69957789     2.10655831    -0.77577616
O       5.90650199     7.94803099     1.44751600    -0.06971112    -2.15573505     1.22834216
O       0.03906498     3.05793901     1.13147801     0.05901892     0.53659457     0.77883757
