# total energy = -39035.36307403 eV

CRYSTAL
PRIMVEC
        7.60600008     0.00000000     0.00000000
        0.00000000     7.60600008     0.00000000
       -3.79573973    -3.79573973     9.71340985
PRIMCOORD
46 1
Ti      1.93456545     4.77037246     6.25239061    -0.88968636     1.17618192     0.01741820
Ti      3.72610498     6.78930898     1.38736098     0.10107036     0.56490243     0.55495251
Ti      2.00193045     0.75558246     6.03157261     0.89134755     0.33106616    -1.57403817
Ti      3.86161701     2.72425999     1.11978399     0.72354392     1.36592503     0.52720516
Ti     -1.83611456     4.89868345     6.17553560    -0.51292679    -2.66362427     0.66404266
Ti     -0.06569900     6.71358599     1.27841302    -0.29093534     0.13131709    -0.83251606
Ti     -1.88910653     0.96665946     5.98512260    -0.70471264     1.56358843     0.35338129
Ti     -0.03142302     2.96839401     0.98420798    -0.41089406    -0.60907965     1.85935205
Ti      3.81403847     1.01605943     8.48558062     1.05852279     0.92126697    -1.53377545
Ti      5.75901601     2.92312898     3.65352700    -1.72893999    -0.93298041     0.27295484
Ti      3.77134646    -2.77613154     8.53879664    -0.23976034    -0.71823279     0.58468810
Ti      5.78271997    -0.95510302     3.71339599    -0.96594530     0.34611458    -1.45328292
Ti      0.02451345     0.98925845     8.25827164    -0.25683479    -1.07941404     4.38296016
Ti      1.79572199     2.77538799     3.40819201     0.54313623    -0.81929441     1.17442560
Ti     -0.03570057    -3.03908754     8.61910062     0.24187405     1.10810396    -1.33485092
Ti      1.85868101    -1.19696100     3.69077001     1.00746375     0.57951093     2.15317397
O       1.75772045    -0.98578853     5.70231964    -0.14156422    -1.54826619    -0.32535471
O       3.48859001     1.02908602     0.70918001    -0.23908929    -2.56637380     1.72554073
O      -1.97842154     2.92554547     5.74675460     0.02382051     0.12041612    -0.81834850
O       0.07096002     4.82499202     0.73638502    -0.42734476    -0.00184991     1.08798302
O      -1.98857958    -0.96844856     5.57340762     1.18488459    -0.02756326     0.60131852
O      -0.05488198     0.99750197     0.70310802     0.89586112    -0.63961717     0.98815347
O       3.66055145     2.79513847     8.97741865     0.28570417     2.26933003    -0.46583290
O       5.73720502     4.74646900     3.90299602     0.13764123     1.42994269     0.89222815
O       3.93201144    -0.75816553     8.83043660    -0.16227164    -2.98773071     0.09165960
O       5.73800503     1.04500902     4.07655499     0.26794530    -1.29396060     0.38146855
O       0.21314646     2.74951545     9.14835063    -0.48691724    -0.91197603    -1.08530881
O       1.86520000     4.49162999     4.16565098     0.04833264     0.84645401     0.63103277
O       0.00443646    -0.87682056     8.87708061     0.04686814     1.38413230     0.46628233
O       1.81205901     1.01618802     3.97205201     0.25830932     0.18496163     1.30649319
O       2.01154047     0.90642544     7.85072964    -0.13764843     0.56885293     1.78427092
O       3.91558901     2.75691700     3.12389598    -0.38498222     0.51135790    -0.47123119
O       1.82622345    -2.60273058     8.25386364     0.61257121    -1.20497520    -0.71367757
O       3.77019200    -0.79244801     3.31908798     0.46141780    -0.70678829     0.20102923
O      -1.83400256     0.91058546     8.08242561    -0.94191885     0.96913193    -0.22775020
O      -0.15274199     2.75026699     2.99690899     1.69023073     0.54296808     0.40977872
O      -1.90874155    -2.87588155     8.21788462    -0.05204789    -0.06089480    -0.97890033
O       0.05649401    -0.81923100     3.34760698    -2.11006170    -0.36840862    -0.36656180
O       3.75525143    -2.59747256     6.66513463     0.45915677    -0.77167962    -1.57403765
O       5.61907498     6.70009499     1.57388300     1.04479490    -0.27511945     1.04476019
O       3.92738442     0.60978544     6.34307063    -1.29402565     1.44407580     0.33018813
O       5.73268097     2.67272400     1.29100701    -0.80363356     1.15209401     0.19389365
O      -0.02917656     4.61844446     6.57249860     0.46995412     0.10116626    -0.33209358
O       1.84735402     6.45652301     1.89678399     0.43518225    -0.03545887    -3.52264764
O       0.01797144     1.01522846     6.56172260     0.43698254     0.16830216    -4.77121745
O       1.91497901     2.92473102     1.65200501    -0.14447548     0.44212424    -2.29921011
