# total energy = -19074.58973157 eV

CRYSTAL
PRIMVEC
        7.60600008     0.00000000     0.00000000
        0.00000000     7.60600008     0.00000000
       -1.89786986    -1.89786986     4.85670466
PRIMCOORD
22 1
Ti      3.76029300     6.70412298     1.08021799    -1.60259285     1.27874943     1.02296031
Ti      3.86325402     3.06664900     1.14611299    -1.06502640    -2.62422621     0.75871431
Ti     -0.20744097     6.59563699     1.40299801     0.35663914     0.16139643    -0.33691903
Ti      0.04761198     2.85729500     1.20215598     0.54457888     0.68861496     0.93979229
Ti      5.66745120     3.00068822     3.52880780     0.15275495    -1.37866665     0.45472393
Ti      5.71365324    -1.13879076     3.78237382     0.41524206     1.27951151     0.64761690
Ti      1.93721324     2.95532021     3.62547182    -0.63726847    -0.52581085    -1.35116689
Ti      1.74781721    -0.76702777     3.67798583    -0.76783402    -1.35088844     1.29797872
O       3.93454599     4.83235600     0.68891501     0.84752359    -0.53722629     0.73305161
O       3.55643900     0.93661198     0.89113698     0.76603862     1.45724396    -1.01930471
O       0.00708500     4.69885299     0.64521799     0.10901430     0.55434753     0.07398661
O      -0.07424299     0.92734201     0.91325002     0.46605222    -0.43855066    -0.32318702
O       5.26306924     4.72295220     3.98901680    -0.53023032     0.40069424     0.73674526
O      -0.11281376    -0.75703478     3.35475580    -0.65729608    -1.06321506    -0.45776555
O       1.68610721     4.81275723     4.09397979     0.81156953     0.18224654    -0.96714498
O       1.43574324     0.97564722     4.05668783     2.05278058     1.77617554     0.71725114
O       3.86410821     2.43116422     3.11898579     0.53845451     0.93879213     0.44328406
O       0.04192920     2.92987621     3.17651879    -0.54917575    -0.29080216     0.41382975
O       5.37809602     6.81234401     1.95176001     1.26295437    -0.33087487    -0.90391433
O       5.85655200     3.06051599     1.59355802    -2.12470850    -0.31046262    -0.50534331
O       2.07308199     6.37963398     1.92883102     0.00365148     0.57239745    -1.02316266
O       2.04864998     3.27958400     1.77960103    -0.39312130    -0.43944566    -1.35202615
