# total energy = -19074.65162457 eV

CRYSTAL
PRIMVEC
        7.60600008     0.00000000     0.00000000
        0.00000000     7.60600008     0.00000000
       -1.89786986    -1.89786986     4.85670466
PRIMCOORD
22 1
Ti      3.81552202     6.67842603     1.17002201     0.46500475     0.44375123    -0.95517572
Ti      3.72509600     2.85155099     1.21880199     0.09676427     0.07513178     0.97957164
Ti     -0.08295801     6.55335498     1.10899697    -0.89610100    -0.02410539    -0.09892940
Ti     -0.11162100     2.80705200     1.19822801     0.03999944    -0.52407304    -0.72670741
Ti      5.78359423     2.77944122     3.56612480    -1.73554079    -0.30931462     0.32203233
Ti     -1.31798976    -0.97324380     3.80989480    -2.86113931     0.26447020    -1.51162359
Ti      1.89341223     2.84619222     3.70871680     1.17661283     1.73918121    -1.25219481
Ti      1.62210322    -0.78824476     3.73893081     0.04452818    -1.34857265    -1.56083940
O       3.68040899     4.81966501     0.85225102    -0.33635184    -0.40197902    -0.65466456
O       4.08993402     0.91310101     0.68077500    -0.84421304     1.31928083     2.14788624
O       0.15542899     4.59405701     0.77770498    -0.38731858     0.67497371    -1.32638299
O       7.19139997     0.95552398     0.56093402     1.23793521     0.40573514     1.95530822
O       5.63626922     4.76671024     4.13274483     1.01204314    -0.55580226    -1.41041464
O       5.49855020     0.82317823     3.74172179     1.65490633     0.91340633     0.74897034
O       1.98597724     4.93558721     4.01691280    -0.68883119    -1.79871281     0.41418225
O       2.08682324     1.03707422     4.05144479    -0.66246734    -0.59377053     0.19596904
O       3.81980920     3.03541823     3.20555083    -0.35075799    -0.46401693     0.22354593
O       0.01018724     3.08819022     3.09389882    -0.66169576    -0.71007082     1.19555287
O       5.66630601     6.42193498     1.82910000     0.51008623     0.31751670     0.80376366
O       5.61511398     2.94571300     1.56459800     1.17498867    -0.08260263     0.54221835
O       1.64724702     6.63199400     1.70863100     1.88959826     0.84098630     0.92111270
O       1.88024699     2.62832799     1.74576601     0.12194927    -0.18141299    -0.95318080
