# total energy = -19946.78248696 eV

CRYSTAL
PRIMVEC
        5.46299684     0.00000000     0.00000000
        2.23628739     5.36701748     0.00000000
        0.00000000     0.00000000     9.98716684
PRIMCOORD
24 1
Ti      3.30529548     3.18048969     3.70516766     1.63886856    -3.26580848     1.09086034
Ti      4.39398884     2.18652794     6.28199928    -1.63886856     3.26580848    -1.09086034
Ti      5.62254827     2.18652977     1.28837588    -3.64639436    -0.24033524     1.03101789
Ti      2.07673610     3.18048808     8.69879112     3.64639436     0.24033524    -1.03101789
Ti      2.18715189     0.49698093     1.28841592     1.63886856    -3.26580848    -1.09086034
Ti      5.51213246     4.87003686     8.69875108    -1.63886856     3.26580848     1.09086034
Ti      0.95859238     0.49697895     6.28195919     3.64639436     0.24033524     1.03101789
Ti      6.74069197     4.87003884     3.70520770    -3.64639436    -0.24033524    -1.03101789
O       2.51650779     1.88981815     5.09637481     0.96800913     1.67404769    -1.06641891
O       5.18277648     3.47719949     4.89079214    -0.96800913    -1.67404769     1.06641891
O       1.78990123     1.88983983     0.10282348     0.58244353    -0.80083028     0.71840917
O       5.90938316     3.47717789     9.88434313    -0.58244353     0.80083028    -0.71840917
O       4.06463287     0.79369062     0.10279106    -0.96800913    -1.67404769    -1.06641891
O       3.63465145     4.57332700     9.88437556     0.96800913     1.67404769     1.06641891
O       4.79123949     0.79366898     5.09640718    -0.58244353     0.80083028     0.71840917
O       2.90804474     4.57334872     4.89075971     0.58244353    -0.80083028    -0.71840917
O       1.55872010     3.26452443     2.69778294     0.42997885     0.96562057     0.89685742
O       6.14056417     2.10249321     7.28938401    -0.42997885    -0.96562057    -0.89685742
O       3.80602238     2.10244327     2.29583230     1.51798116     0.44922203    -0.39785908
O       3.89326188     3.26457437     7.69133448    -1.51798116    -0.44922203     0.39785908
O       0.44057647     0.58101551     2.29580037     0.42997885     0.96562057    -0.89685742
O       7.25870784     4.78600212     7.69136636    -0.42997885    -0.96562057     0.89685742
O       2.77511827     0.58106551     7.28941583    -1.51798116    -0.44922203    -0.39785908
O       4.92416600     4.78595213     2.69775106     1.51798116     0.44922203     0.39785908
