# total energy = -4976.25887859 eV

CRYSTAL
PRIMVEC
        4.71723243     0.00000000     0.00000000
        0.00000000     2.46373214     0.00000000
        0.00000000    -0.00012995     6.56995143
PRIMCOORD
6 1
Ti      2.35861599     1.23180104     3.28497572     0.00000000     0.00000000     0.00000000
Ti      0.00000000     0.00000000     0.00000000     0.00000000     0.00000000     0.00000000
O       2.35861599     0.48011977     1.28038679     0.00000000    -0.05098859     2.19809322
O       2.35861599     1.98348236     5.28956470     0.00000000     0.05098859    -2.19809322
O       0.00000000     0.75163022     4.56536383    -0.00000000     0.05117783     2.20041749
O       0.00000000     1.71197191     2.00458760    -0.00000000    -0.05117783    -2.20041749
