# total energy = -19935.87046188 eV

CRYSTAL
PRIMVEC
        6.24325171     0.00000000     0.00000000
        0.00002356     3.98682452     0.00000000
        0.00000000     0.00000000     9.53518724
PRIMCOORD
24 1
Ti      2.26289224     2.36258850     3.53748647    -0.26115887     2.13158004    -2.40003107
Ti      3.98038262     1.62423597     5.99770086     0.26115887    -2.13158004     2.40003107
Ti      5.38441069     1.62423731     1.23006910    -0.25970003    -2.13191222     2.40136419
Ti      0.85886423     2.36258732     8.30511829     0.25970003     2.13191222    -2.40136419
Ti      2.26288067     0.36917629     1.23010735    -0.26133911     2.13146845     2.39949217
Ti      3.98039419     3.61764828     8.30508009     0.26133911    -2.13146845    -2.39949217
Ti      0.85885260     0.36917485     5.99766262     0.25973242     2.13192559     2.40184473
Ti      5.38442226     3.61764973     3.53752467    -0.25973242    -2.13192559    -2.40184473
O       1.97603677     1.40382865     4.86573308     2.39378149    -1.76085253     2.73974181
O       4.26723815     2.58299577     4.66945426    -2.39378149     1.76085253    -2.73974181
O       1.14564197     1.40384475     0.09817010    -2.39457853    -1.76086128     2.73985159
O       5.09763300     2.58297972     9.43701693     2.39457853     1.76086128    -2.73985159
O       4.26722657     0.58958346     0.09813916    -2.39438184     1.76028201     2.73910006
O       1.97604834     3.39724096     9.43704788     2.39438184    -1.76028201    -2.73910006
O       5.09762137     0.58956741     4.86576397     2.39520126     1.76095306     2.74047766
O       1.14565344     3.39725706     4.66942331    -2.39520126    -1.76095306    -2.74047766
O       0.22684602     2.42501268     2.57569195     1.30700098    -0.12432754     1.97507462
O       6.01642890     1.56181174     6.95949533    -1.30700098     0.12432754    -1.97507462
O       3.34847906     1.56177468     2.19193200     1.30714059     0.12557067    -1.97358260
O       2.89479580     2.42504980     7.34325514    -1.30714059    -0.12557067     1.97358260
O       0.22683439     0.43160037     2.19190156     1.30701666    -0.12536087    -1.97253488
O       6.01644047     3.55522405     7.34328557    -1.30701666     0.12536087     1.97253488
O       2.89478423     0.43163748     6.95952572    -1.30699532    -0.12480654    -1.97538495
O       3.34849064     3.55518694     2.57566152     1.30699532     0.12480654     1.97538495
