# total energy = -19915.62569190 eV

CRYSTAL
PRIMVEC
        6.43740164     0.00000000     0.00000000
        2.01020583     6.54980601     0.00000000
        0.00000000     0.00000000    11.65632197
PRIMCOORD
24 1
Ti      3.52449456     3.88140901     4.32441231    -0.21962526    -2.00080597     0.66543106
Ti      4.92311281     2.66839715     7.33190972     0.21962526     2.00080597    -0.66543106
Ti      6.37080345     2.66839940     1.50370213     0.00120199    -0.68907724    -0.10466708
Ti      2.07680402     3.88140700    10.15262003    -0.00120199     0.68907724     0.10466708
Ti      2.51939179     0.60650611     1.50374886    -0.21962526    -2.00080597    -0.66543106
Ti      5.92821561     5.94330024    10.15257330     0.21962526     2.00080597     0.66543106
Ti      1.07170112     0.60650367     7.33186298    -0.00120199     0.68907724    -0.10466708
Ti      7.37590627     5.94330269     4.32445905     0.00120199    -0.68907724     0.10466708
O       2.74530588     2.30629809     5.94813188     1.82806660     2.06185298    -0.68070676
O       5.70230150     4.24350814     5.70819015    -1.82806660    -2.06185298     0.68070676
O       1.88909594     2.30632451     0.12000839    -0.61060715    -0.15430713     1.16050255
O       6.55851151     4.24348177    11.53631332     0.61060715     0.15430713    -1.16050255
O       4.69719870     0.96860505     0.11997057    -1.82806660    -2.06185298    -0.68070676
O       3.75040867     5.58120118    11.53635113     1.82806660     2.06185298     0.68070676
O       5.55340871     0.96857868     5.94816970     0.61060715     0.15430713     1.16050255
O       2.89419861     5.58122762     5.70815233    -0.61060715    -0.15430713    -1.16050255
O       1.45660684     3.98396336     3.14866336     0.54722043     1.98319750     2.00303923
O       6.99100054     2.56584287     8.50765867    -0.54722043    -1.98319750    -2.00303923
O       4.24006522     2.56578179     2.67953472     0.66539352     1.82562713     1.07069131
O       4.20754216     3.98402443     8.97678712    -0.66539352    -1.82562713    -1.07069131
O       0.45150397     0.70906028     2.67949749     0.54722043     1.98319750    -2.00303923
O       7.99610334     5.84074596     8.97682435    -0.54722043    -1.98319750     2.00303923
O       3.20243936     0.70912134     8.50769583    -0.66539352    -1.82562713     1.07069131
O       5.24516801     5.84068488     3.14862613     0.66539352     1.82562713    -1.07069131
