# total energy = -19916.42483917 eV

CRYSTAL
PRIMVEC
        7.03125952     0.00000000     0.00000000
        0.00003270     6.12277093     0.00000000
        0.00000000     0.00000000    11.55593092
PRIMCOORD
24 1
Ti      2.54851275     3.62834826     4.28716810     0.37268977    -0.87836990     0.94442028
Ti      4.48277952     2.49442241     7.26876328    -0.37268977     0.87836990    -0.94442028
Ti      6.06402069     2.49442439     1.49075142     0.37287643     0.87851594    -0.94452364
Ti      0.96727159     3.62834647    10.06518009    -0.37287643    -0.87851594     0.94452364
Ti      2.54849667     0.56696292     1.49079775     0.37268977    -0.87836990    -0.94442028
Ti      4.48279561     5.55580794    10.06513375    -0.37268977     0.87836990     0.94442028
Ti      0.96725550     0.56696068     7.26871694    -0.37287643    -0.87851594    -0.94452364
Ti      6.06403677     5.55581011     4.28721443     0.37287643     0.87851594     0.94452364
O       2.22544956     2.15593164     5.89690327     0.95927920     1.41969864    -0.85918766
O       4.80584271     3.96683903     5.65902810    -0.95927920    -1.41969864     0.85918766
O       1.29024431     2.15595638     0.11897480    -0.95897376     1.41959040    -0.85988109
O       5.74104803     3.96681435    11.43695625     0.95897376    -1.41959040     0.85988109
O       4.80582663     0.90545350     0.11893729    -0.95927920    -1.41969864    -0.85918766
O       2.22546565     5.21731717    11.43699376     0.95927920     1.41969864     0.85918766
O       5.74103188     0.90542882     5.89694078     0.95897376    -1.41959040    -0.85988109
O       1.29026027     5.21734191     5.65899059    -0.95897376     1.41959040     0.85988109
O       0.25548168     3.72421639     3.12154535    -0.82015933     0.07571850     0.01518520
O       6.77581059     2.39855428     8.43438602     0.82015933    -0.07571850    -0.01518520
O       3.77111848     2.39849737     2.65645710    -0.81978781    -0.07558712    -0.01514226
O       3.26017380     3.72427329     8.89947408     0.81978781     0.07558712     0.01514226
O       0.25546553     0.66283086     2.65642017    -0.82015933     0.07571850    -0.01518520
O       6.77582674     5.45993981     8.89951100     0.82015933    -0.07571850     0.01518520
O       3.26015765     0.66288776     8.43442288     0.81978781     0.07558712    -0.01514226
O       3.77113463     5.45988290     3.12150843    -0.81978781    -0.07558712     0.01514226
