# total energy = -19883.25547960 eV

CRYSTAL
PRIMVEC
        9.30600281     0.00000000     0.00000000
        0.00002930     3.75684190     0.00000000
        0.00000000     0.00000000    14.40337212
PRIMCOORD
24 1
Ti      3.37299592     2.22630098     5.34354835     0.24394996    -0.16216288     2.42582105
Ti      5.93303645     1.53054079     9.05982390    -0.24394996     0.16216288    -2.42582105
Ti      8.02583849     1.53054207     1.85808023     0.24393685     0.16207932    -2.42469773
Ti      1.28019388     2.22629990    12.54529215    -0.24393685    -0.16207932     2.42469773
Ti      3.37298140     0.34788010     1.85813797     0.24375070    -0.16199164    -2.42405367
Ti      5.93305097     3.40896180    12.54523441    -0.24375070     0.16199164     2.42405367
Ti      1.28017936     0.34787875     9.05976616    -0.24389519    -0.16223333    -2.42664226
Ti      8.02585301     3.40896315     5.34360609     0.24389519     0.16223333     2.42664226
O       2.94541909     1.32284787     7.34993052     0.97293279     0.78798196    -2.34047016
O       6.36061335     2.43399390     7.05344172    -0.97293279    -0.78798196     2.34047016
O       1.70765757     1.32286300     0.14829079    -0.97124692     0.78783027    -2.33920878
O       7.59837493     2.43397876    14.25508106     0.97124692    -0.78783027     2.33920878
O       6.36059883     0.55557295     0.14824407    -0.97280630    -0.78780893    -2.33972094
O       2.94543354     3.20126882    14.25512778     0.97280630     0.78780893     2.33972094
O       7.59836041     0.55555781     7.34997731     0.97043111    -0.78784929    -2.33915736
O       1.70767189     3.20128402     7.05339494    -0.97043111     0.78784929     2.33915736
O       0.33812645     2.28512420     3.89071012    -1.85186448     0.56327878     0.07607820
O       8.96790592     1.47171757    10.51266212     1.85186448    -0.56327878    -0.07607820
O       4.99114011     1.47168265     3.31102174    -1.85480196    -0.56341016    -0.07629777
O       4.31489232     2.28515918    11.09235025     1.85480196     0.56341016     0.07629777
O       0.33811193     0.40670325     3.31097574    -1.85174878     0.56337776    -0.07644792
O       8.96792044     3.35013852    11.09239625     1.85174878    -0.56337776     0.07644792
O       4.31487781     0.40673817    10.51270799     1.85465001     0.56334819    -0.07653097
O       4.99115463     3.35010360     3.89066419    -1.85465001    -0.56334819     0.07653097
