# total energy = -19960.75102041 eV

CRYSTAL
PRIMVEC
        5.93400000     0.00000000     0.00000000
        0.00000000     9.29699974     0.00000000
        0.00000000     0.00000000     4.64899994
PRIMCOORD
24 1
Ti      4.40444698     6.96380603     2.31689998     1.91822828     0.59559190    -0.06326433
Ti      4.48589101     2.44191599     2.31363501    -1.26145258    -0.70873179    -0.09278112
Ti      1.51327601     6.97046202     2.27714602    -1.99827369     0.79541117     0.15997178
Ti      1.48618002     2.25365399     2.41680002     1.37143131    -0.09612613     0.03400259
Ti      2.94836502     4.66665499     0.02618200    -0.42762321    -1.59628387    -0.19682033
Ti      2.95999698     9.23142997     0.07662201    -0.38162976     1.95878513    -1.06561621
Ti      5.92660798     4.68143301     0.01263400     0.35106524    -0.95427146    -0.45716057
Ti      5.88762201     0.03596199     4.60367401     0.23368251    -0.04560522     0.59741918
O       4.42958702     5.57913300     0.78170100     0.08489194     0.21152062     0.44561939
O       4.44062799     0.88582499     0.91038897     0.46402979     0.00384252     0.13306132
O       1.54719500     5.57797600     0.85110900    -0.28083039     0.02108588    -0.46539864
O       1.53414099     0.82590101     0.98500000    -1.01822665     0.40964862     0.04051572
O       4.35806999     8.42265801     3.69635500     0.93458169    -1.05163121    -0.83149944
O       4.51731302     3.66951402     3.76838899     0.01175252     1.32166836     0.66494306
O       1.41144903     8.41280700     3.75191899     0.53040387    -0.52729669    -1.02626238
O       1.51091900     3.65686700     3.80140298    -0.06301596     0.85343996     0.39726798
O       2.85816099     5.98469100     3.06529801     1.28936552     0.02361765     0.64487611
O       3.09649502     1.48120898     3.24276300    -1.03543248    -0.32446845     0.04044655
O       0.07100299     6.01546102     3.09067301    -0.89575031    -0.06460465     0.79289971
O       0.01197401     1.50727699     3.34785199     0.06955788    -0.73457344    -0.44549032
O       3.00023403     7.92409498     1.34649199     0.01263389    -1.65068972     1.37327582
O       2.96863802     3.24507000     1.46693199     0.20508463     0.67858791    -0.62742782
O       5.86947700     7.70795201     1.24756299    -0.17308236     0.70704206     0.82002692
O       0.07200398     3.31019801     1.52271801     0.05860858     0.17404087    -0.87260420
