# total energy = -19071.34366617 eV

CRYSTAL
PRIMVEC
        5.17600016     0.00000000     0.00000000
        0.00000000     5.50899976     0.00000000
        0.00000000     0.00000000     9.26300011
PRIMCOORD
22 1
Ti      1.41584199     3.05507901     3.62233798     2.24406944    -0.54315911     0.02191378
Ti      4.48802502     3.08856699     5.93482298    -0.89775268     0.98449993    -2.25969404
Ti      4.00588099     2.29563700     1.43534101     0.36994152    -0.36446352     1.01680329
Ti      1.65526400     2.66057399     8.35425502    -0.96671509     0.02861150     0.65074285
Ti      1.39822600     0.40626398     1.29857398    -0.01137765     0.15187152     0.05681960
Ti      3.22067202     5.23567199     8.12888198    -0.45414466    -0.19950534     1.04643603
Ti      1.60082701     0.25528902     5.63715199     0.50380348    -0.08814850    -0.60271231
Ti      3.89129798     4.91356798     3.33856302     0.45191397     0.02499216     1.19575085
O       3.18689199     3.34169200     4.45608499    -0.16490753    -0.12666339    -0.70643888
O       0.40879800     2.10822301     0.40497797     0.87964285    -0.19142153    -1.51155982
O       0.14923201     3.43230699     7.43212202     0.17245398     0.39333445     0.75341784
O       2.86539199     1.15230500     0.34753700     1.18220627     0.78168147    -1.87981392
O       1.75008500     4.52395600     9.11934801    -0.25158999    -0.42820171     0.88311050
O       3.21409800     0.37260899     4.80144099    -0.69657278     1.58619383    -0.72712598
O       0.29493900     4.54430302     4.71117102     1.20987855     0.85660242     1.51155211
O       0.01307798     3.44658900     2.55422100    -2.70875794     0.89059678    -1.26783381
O       0.73226098     2.10248101     5.11415400     0.14922663    -1.73932108     0.00664219
O       2.35439103     1.76013598     2.52583202    -0.77152407     0.98139275     0.29548285
O       2.84370202     4.45430801     6.57191498     0.16492296    -1.92790771     0.71569280
O       4.92262602     0.84782101     2.23890502    -0.70538421    -2.40363576     1.27715972
O       1.72686100     0.82776303     7.42741700    -0.43161793     1.71306265    -0.82412577
O       2.23090402     4.67222601     2.45883098     0.73228542    -0.38041208     0.34778014
