# total energy = -19960.63982389 eV

CRYSTAL
PRIMVEC
        5.93400000     0.00000000     0.00000000
        0.00000000     9.29699974     0.00000000
        0.00000000     0.00000000     4.64899994
PRIMCOORD
24 1
Ti      4.43357199     6.95857500     2.20966401     0.23097205     0.51803686     0.69904259
Ti      4.45281298     2.40666300     2.39073502     0.16033354    -0.97351643    -1.87232738
Ti      1.49394802     6.89411502     2.23452201    -0.14265771     1.22335833     1.08282230
Ti      1.45414299     2.25932502     2.42745299    -0.19836762    -0.39008432    -1.45128954
Ti      2.96404598     4.63983999     0.02999699    -0.30635040    -0.43321253     0.39826583
Ti      3.01229800     0.05491299     0.02867400    -0.98084614     0.41018007     0.39546769
Ti      5.92795299     4.65803797     4.55203800     0.36924192    -0.27350223     0.32527912
Ti      5.89699702     9.25969502     0.00060300     0.99242613     0.29404998     0.41982633
O       4.54362398     5.52344498     0.89184703    -0.55791134    -0.10073380    -0.03364264
O       4.50984199     0.95969702     1.00529199    -1.05089973    -0.47889154    -0.55211170
O       1.50650101     5.57322299     0.93287001    -0.08541979    -0.62507166    -0.85849115
O       1.48806299     0.81840098     0.98009897     0.20924160     0.76861023     0.56043771
O       4.42705200     8.42308902     3.81817499    -0.48955339    -0.42839891    -1.00561795
O       4.44341501     3.76750802     3.67529200     0.21591541     1.11457389     1.14810597
O       1.34817498     8.43028398     3.80782000     1.78053537    -0.52189197    -1.08734744
O       1.58448898     3.79599299     3.73016202    -0.71883520     0.05176970     0.20748605
O       2.92333198     6.06940000     3.19637400     0.41291109     0.05246749     0.17818960
O       2.99099300     1.44160901     3.11716601    -0.06622290    -0.94604984     1.93114396
O       0.04773200     6.15172199     3.23454101    -0.44233301    -1.11708740     0.52367914
O       0.04052900     1.49039301     3.43148099    -0.45286862     0.80943268    -1.29267916
O       3.01297598     7.92894500     1.40389899    -0.21376700    -0.65033070     0.35275677
O       2.90059101     3.18995301     1.40233199     0.74324012     1.07849847    -0.50522890
O       5.85923900     7.76652902     1.33035801     0.34127473     0.29546151     0.68842393
O       0.00076900     3.21796999     1.42718797     0.24994114     0.32233187    -0.25219086
