# total energy = -4978.46404796 eV

CRYSTAL
PRIMVEC
        4.00186261     0.00000000     0.00000000
       -0.00000686     2.95789862     0.00000000
       -2.00095580    -1.47898800     4.54332676
PRIMCOORD
6 1
Ti     -0.00017282     2.21853288     1.13583142    -0.00619276    -0.01264649    14.81103963
Ti      2.00107258    -0.73962226     3.40749466     0.00619276     0.01264649   -14.81103963
O       0.00004174     0.73946765     0.74007068     0.00574719     0.01248220    -5.34983337
O       2.00085787     0.73944292     3.80325541    -0.00574719    -0.01248220     5.34983337
O      -0.00001791    -0.73946481     3.01173391    -0.00029233    -0.00028899     1.77662317
O       2.00091747     2.21837528     1.53159222     0.00029233     0.00028899    -1.77662317
