# total energy = -19960.75719875 eV

CRYSTAL
PRIMVEC
        5.93400000     0.00000000     0.00000000
        0.00000000     9.29699974     0.00000000
        0.00000000     0.00000000     4.64899994
PRIMCOORD
24 1
Ti      4.49718502     6.95549000     2.37740399    -0.31632165     0.42801427    -0.09433252
Ti      4.43711700     2.45193099     2.38252299    -0.15357051    -1.35657007     0.16093363
Ti      1.50486098     6.88144101     2.16292099     0.10749735     0.99253952     0.95140880
Ti      1.48273201     2.41310700     2.37789300     0.15739065    -1.29891743    -0.16216725
Ti      2.97766102     4.65455498     0.00806498    -0.26485046     0.44090065    -0.18806675
Ti      2.97423698     9.20054301     0.01522898    -0.93045507     0.28491356    -0.28728000
Ti      5.89004400     4.64121802     4.62787101     0.51524335     0.26012632     0.31695595
Ti      0.00412801     0.05198198     4.63356998     0.91132297     0.02564959     0.23557022
O       4.43186799     5.57642298     0.79788801    -0.09526224     0.22583936     0.42744863
O       4.39286397     0.71672698     0.86585601     0.88386872     1.67176738     1.25976105
O       1.48327600     5.55156302     0.82987402    -0.06594034    -0.08034906    -0.04921865
O       1.47264800     0.91229502     0.99299000    -0.23779859    -0.16732591    -0.59002726
O       4.42524999     8.31892498     3.74199501     0.21940028    -0.13106075    -0.57377454
O       4.45768099     3.71333900     3.83726602    -0.37760341    -0.32433167    -0.63012543
O       1.47040699     8.35118902     3.79807001    -0.42074319     0.12187573    -0.58260088
O       1.45308400     3.77150003     3.73953899     0.46717630    -0.14302229     0.13587797
O       2.96574601     5.96095201     3.01637499     0.11756759    -0.51487928     1.50289932
O       3.05341301     1.47678802     3.23860599    -0.39265979     0.01717060    -0.16915397
O       5.83008600     6.00101998     3.26573199     0.71748614     0.21488594    -0.83296343
O       5.89085999     1.58046401     3.31783399     0.53894405    -1.06924353     0.04600065
O       2.90899498     7.83710100     1.40971999     0.26875880     0.11909868    -0.05929043
O       3.02153801     3.37612101     1.52407101    -0.43911270    -0.19406180    -0.69987228
O       0.03343998     7.79466802     1.38306602    -0.58496244     0.17040558     0.18931760
O       0.07212199     3.25275799     1.43815999    -0.62537582     0.30657486    -0.30729965
