# total energy = -19933.84464705 eV

CRYSTAL
PRIMVEC
        7.14900844     0.00000000     0.00000000
        0.00002698     4.56522394     0.00000000
        0.00000000     0.00000000    10.91853046
PRIMCOORD
24 1
Ti      2.59118749     2.70534746     4.05069695     0.43621070     0.14563325     1.18939611
Ti      4.55784746     1.85987642     6.86783363    -0.43621070    -0.14563325    -1.18939611
Ti      6.16556871     1.85987796     1.40852472     0.43367533    -0.14546073    -1.19026642
Ti      0.98346629     2.70534610     9.51000591    -0.43367533     0.14546073     1.19026642
Ti      2.59117424     0.42273555     1.40856852     0.43621070     0.14563325    -1.18939611
Ti      4.55786071     4.14248845     9.50996218    -0.43621070    -0.14563325     1.18939611
Ti      0.98345298     0.42273390     6.86778984    -0.43367533     0.14546073    -1.19026642
Ti      6.16558197     4.14249010     4.05074068     0.43367533    -0.14546073     1.19026642
O       2.26271568     1.60749291     5.57164254     1.20003199     0.75984123    -0.88690108
O       4.88631933     2.95773091     5.34688804    -1.20003199    -0.75984123     0.88690108
O       1.31184909     1.60751134     0.11241240    -1.20212898     0.76128130    -0.88800151
O       5.83718597     2.95771253    10.80611783     1.20212898    -0.76128130     0.88800151
O       4.88630608     0.67511888     0.11237696    -1.20003199    -0.75984123    -0.88690108
O       2.26272893     3.89010493    10.80615327     1.20003199     0.75984123     0.88690108
O       5.83717266     0.67510051     5.57167792     1.20212898    -0.76128130    -0.88800151
O       1.31186223     3.89012337     5.34685260    -1.20212898     0.76128130     0.88800151
O       0.25975632     2.77682799     2.94936747    -1.67047900     0.62233755     0.77731265
O       6.88927868     1.78839583     7.96916305     1.67047900    -0.62233755    -0.77731265
O       3.83426877     1.78835339     2.50993249    -1.66951200    -0.62194443    -0.77849767
O       3.31476618     2.77687049     8.40859785     1.66951200     0.62194443     0.77849767
O       0.25974301     0.49421596     2.50989764    -1.67047900     0.62233755    -0.77731265
O       6.88929194     4.07100785     8.40863270     1.67047900    -0.62233755     0.77731265
O       3.31475292     0.49425846     7.96919784     1.66951200     0.62194443    -0.77849767
O       3.83428202     4.07096536     2.94933262    -1.66951200    -0.62194443     0.77849767
