# total energy = -19959.06035133 eV

CRYSTAL
PRIMVEC
        5.93400000     0.00000000     0.00000000
        0.00000000     9.29699974     0.00000000
        0.00000000     0.00000000     4.64899994
PRIMCOORD
24 1
Ti      4.44870397     7.01178298     2.35075902     0.48227228     0.10624831    -0.00792131
Ti      4.47310000     2.15344602     2.41495399    -1.66969532    -0.34893534     0.27276586
Ti      1.41999698     6.93499899     2.34671600    -0.38660921     0.06931620    -0.01795813
Ti      1.38715201     2.45500498     1.99869702     1.46691851    -0.00340414     1.45458390
Ti      2.92384703     4.50804200     0.08225499    -0.23235711     1.51245482    -0.75343764
Ti      3.04915800     9.26921402     0.00057299     0.95630983    -1.39086680     0.09357765
Ti      5.83838900     4.59955801     0.10414298     0.47733268     1.75351795    -1.02994986
Ti      0.09070400     0.21128201     4.52306401    -0.58739367    -1.74698477     0.96364674
O       4.43344002     5.47740100     0.94352103    -0.55392587     0.68047253     0.56758306
O       4.52190797     0.93581599     0.83268501    -0.94747423     0.41505565     0.80488594
O       1.41993401     5.58378198     1.00659398     0.55599767    -0.99048829    -0.76162686
O       1.70866799     1.13377099     0.79851598    -1.43378572    -1.10996442    -0.24984807
O       4.60715599     8.33813099     3.77063101    -1.01581135     1.34426553     0.52063856
O       4.42793398     3.78447598     3.79733800    -0.47573602    -1.06525214    -0.82319760
O       1.20251000     8.35179800     3.85583098     2.99303927    -0.16735754    -0.40736471
O       1.37524298     3.67772902     3.96488801     1.13571042    -0.34322312    -1.10908998
O       2.97620102     6.26007998     3.28447502    -0.26103829    -0.99864024     0.39272433
O       3.11406497     1.32927801     3.26431797    -0.86973664     0.13243294    -0.67865553
O       0.04562900     5.95083900     3.17171100    -0.45646637     0.26945480     0.57922656
O       0.19357902     1.45431101     3.07967898    -0.71290444    -0.62379640     0.85911413
O       3.05355901     7.95302299     1.37457500    -0.55705593     0.10220267     0.03223599
O       3.01799401     3.16032702     1.36812401     0.50680087     0.45766322     1.23070269
O       0.00275802     7.98499799     1.54559202     0.34349360    -0.25873175    -0.24971694
O       5.73833100     3.13600800     1.48356699     1.24211480     2.20455980    -1.68291903
