# total energy = -19960.40831042 eV

CRYSTAL
PRIMVEC
        5.93400000     0.00000000     0.00000000
        0.00000000     9.29699974     0.00000000
        0.00000000     0.00000000     4.64899994
PRIMCOORD
24 1
Ti      4.48221201     6.83447802     2.29392602    -0.12953994     1.24017541     0.64441871
Ti      4.48518000     2.47760402     2.38104002    -0.97527250    -2.27555570    -0.22552208
Ti      1.52032402     6.83150198     2.13305698    -0.02967980     1.77744824     1.47467271
Ti      1.45832699     2.38042898     2.37022602     0.95984150    -2.09723471    -0.18339274
Ti      2.91241500     4.63010800     0.04559000     1.32262301    -0.81991533    -0.68728081
Ti      2.94061898     9.23266798     0.06803701     1.79283450     1.36109341     0.23877201
Ti      0.01044702     4.65435099     4.61205501    -1.04856645    -0.69274852    -0.41481397
Ti      0.00951101     9.28237900     0.03905302    -1.47425413     0.78752611     0.51746607
O       4.45243399     5.55492901     0.83951002     0.07643970     0.10158921     0.01426757
O       4.37603402     0.85492601     0.95053998     0.87955261     1.00217088     0.62927645
O       1.47505401     5.63032698     0.79034400    -0.12159548    -0.53035579    -0.49497045
O       1.50913901     0.93458597     1.01626898    -0.62791736     0.13355703     0.14420397
O       4.41318099     8.37704499     3.80809999     0.67455256    -0.29335347    -0.66700766
O       4.49352698     3.84696800     3.69599299    -0.63865044     0.00687899     0.38662284
O       1.48316598     8.50020899     3.92907298    -1.01477597    -1.66587929    -2.26650541
O       1.49310901     3.80705698     3.67637100     0.16916914     0.65237139     1.15058195
O       2.92994997     6.05668800     3.16005699    -0.19097981    -0.20228367     0.30031139
O       2.99369900     1.58354498     3.24739102     0.15043119    -0.08784537     0.07527113
O       0.00653301     5.90459399     3.08235397     0.29610969     0.67450474     0.47360149
O       5.91925702     1.58082401     3.33179802    -0.10885026    -0.44204993    -0.25602541
O       2.97965702     7.74050001     1.32659498    -0.31506001     0.24379646     0.71381923
O       2.94148001     3.28715801     1.35300002     0.31039680     0.64278220    -0.18698972
O       5.87809798     7.86575399     1.48606598     0.62125589     0.00006685    -0.09448448
O       0.06362700     3.33614199     1.48411099    -0.57806442     0.48326113    -1.28629254
