# total energy = -19515.24128663 eV

CRYSTAL
PRIMVEC
        5.93400000     0.00000000     0.00000000
        0.00000000     9.29699974     0.00000000
        0.00000000     0.00000000     4.64899994
PRIMCOORD
23 1
Ti      4.64613302     6.92437899     2.30538403    -1.27419883    -0.57000890     1.28832319
Ti      4.35254998     2.21613701     2.31498298    -1.60103399    -0.40109019     1.65274095
Ti      1.38605799     7.35858400     2.16948999     1.89711514    -1.78242307     0.35467533
Ti      1.40160299     2.28104701     2.27897501     0.83536433    -0.27920134     0.80524538
Ti      3.09815500     4.51082600     4.63343600    -1.28406853    -1.02546225     1.44485715
Ti      2.82126702     9.13483899     4.61834402     3.58545431     1.44469877     0.71468158
Ti      0.10843302     4.67510198     0.01431800     1.09160776     0.93427547    -0.94062147
Ti      5.78712702     0.32875798     0.04011100    -0.62857094    -1.02804287    -0.31925785
O       4.43749298     5.57378799     0.82623000     0.52461580     0.32529378     0.50350626
O       4.27050798     0.99231403     0.97408900     1.22283254    -1.45697323    -0.97952793
O       1.61452900     5.69186400     0.96077501    -0.36239173    -0.74091224    -1.31103067
O       1.59762200     0.67080101     1.16927503    -1.42038847     1.02700337    -0.54105209
O       4.47039902     8.47427401     3.76589202     0.66807466    -1.32566874     0.75722384
O       4.53112201     3.83364798     3.56054600    -0.25346716     0.64364301     0.95153632
O       1.43818798     8.34102501     3.98793098    -2.55359541    -1.74429540    -2.36520804
O       1.58165698     3.57711301     3.87571699    -1.11628059     0.53877564    -0.85771956
O       3.11988598     1.37190800     3.55344899    -1.08307041     1.01129444    -2.17649234
O       0.31181500     5.94285700     3.08687701    -1.19542586     0.63880959     0.85935530
O       5.92411402     1.14849000     2.94892802     0.01698369     0.03484566     3.32843697
O       3.07796000     7.91055900     1.56616400    -0.08579877    -1.15791911     0.58450812
O       2.87332102     3.14949699     1.35179900     0.57892651     0.28036913     0.60326793
O       5.76454602     7.98865302     1.49980501     0.30024120     1.60045883    -1.84506622
O       5.81586499     2.92143302     1.46943002     2.13707423     3.03253040    -2.51238267
