# total energy = -39035.14707378 eV

CRYSTAL
PRIMVEC
        5.93200024     0.00000000     0.00000000
        0.00000000     9.29399984     0.00000000
        0.00000000     0.00000000     9.29399984
PRIMCOORD
46 1
Ti      4.43089298     7.05419802     6.83532899    -0.14172620     0.72322331     0.22208477
Ti      4.48151799     6.79459700     2.39560499     0.36544208     0.61448386     0.66520428
Ti      4.47295299     2.11785298     7.17583798    -0.43546970     0.36429074    -1.12163954
Ti      4.29555002     2.65170201     1.97348400     0.22578896    -1.88177336     1.54614991
Ti      1.50183499     6.82845698     7.15659398     0.91343667     0.33486857    -0.83621330
Ti      1.51511199     7.18732198     2.19266800     0.40862661    -0.67033184     0.37270982
Ti      1.50003002     2.35655197     6.68721799     0.40751126     1.87130820     1.54251232
Ti      1.32845800     2.09639500     2.58480200     1.31282916     0.13304692    -0.66771060
Ti      2.91951698     4.69077600     4.65413498    -0.07852332    -0.54591868     0.17625896
Ti      2.94463099     4.73946798     9.05987002    -1.23619097    -0.66054030     0.66191970
Ti      2.98206600     9.23801500     4.64040298     1.91692447    -0.27143943    -1.02612945
Ti      2.94753099     9.29024199     0.00487600    -0.12252494     0.39260966     0.34008945
Ti      5.88349601     4.68573501     4.72640900     0.23984750    -0.27001067    -0.36935119
Ti      5.91008802     4.75694999     9.19605998     1.41903273    -0.18455720     0.37879151
Ti      0.05937099     9.14511000     4.93317400    -2.37131956    -0.57798472    -1.48750689
Ti      5.90373498     9.25087798     9.23077702     0.16898016     0.25310952     0.45538625
O       4.52071399     5.68447600     5.53818299    -0.91778724    -0.10573511     0.45120923
O       4.43428199     5.42103600     0.98564401     0.31565317    -0.25406417     0.38078875
O       4.44028598     0.72875698     5.79920400     0.02272110     0.52322869    -1.01816803
O       4.60197202     0.99091298     0.82656799    -1.15620135     1.05026029     0.24498354
O       1.54052599     5.47270900     5.82965800    -0.08169221     0.32838399    -0.97894841
O       1.57584598     5.56768298     0.76638302    -0.88963108     0.38016911     1.13145833
O       1.41990200     1.04914999     5.37210298     1.06920650    -0.14137550    -1.04528186
O       1.41089402     0.87816901     0.91830901     0.36595502     0.43909907     0.95995463
O       4.40904002     8.47209301     8.22519398     0.29079470     0.06645867     1.02246820
O       4.60018599     8.37254302     3.81901601    -0.75821269     0.51230072     0.30885131
O       4.43123102     3.71955900     8.43130498     0.89765189    -1.27252607     0.37046294
O       4.39352301     3.87046702     3.79826602     0.00955757    -0.82642640    -1.38482136
O       1.51957602     8.28085300     8.56224100     0.23393294    -0.56176002    -0.67224937
O       1.47221699     8.34227799     3.77235999     0.06139977     1.15014100    -0.16614475
O       1.52001498     4.00728802     8.07757702    -0.66267715    -1.25620110     1.15278435
O       1.48098001     3.67562300     3.96210999     0.32837756    -0.43396201    -1.22174985
O       3.17657599     6.13869899     7.99536098    -0.02007415     1.25814614    -1.40051049
O       2.87216599     6.14915098     3.15464303     0.09242708    -0.92591424     0.92318399
O       2.83935001     1.30088300     7.88024201     0.38797910     1.46226919    -0.61683539
O       3.14421501     1.38705401     3.04839201    -0.30928660     1.16522978     0.11139823
O       5.88551699     6.15965600     7.93979499    -0.99457146    -0.51981400     0.60158334
O       0.01678000     6.04214102     3.35022900     0.24923152     0.45080865    -1.13788275
O       0.13636802     1.25589600     7.79626899    -0.13289266     1.27568467    -0.38386713
O       2.91279997     7.88334802     6.03836900    -0.59459534    -0.16622162     0.24140636
O       3.06583798     8.05682502     1.53544002    -0.31513997    -0.77851259    -0.28362827
O       3.07718502     3.28134499     6.09135599    -0.10126114    -1.13242301     0.27766048
O       0.16217499     7.79658502     6.06201602     0.30472057    -0.50335302     1.20510787
O       5.84657701     7.85070800     1.46748101     0.08910290    -0.12226911    -0.59288710
O       5.86403102     3.24851298     6.00905199    -0.18483565    -1.25024334     1.27616830
O       0.16669501     3.15778099     1.61728199    -0.59251763     0.56423600    -0.60905086
