# total energy = -19075.56829188 eV

CRYSTAL
PRIMVEC
        7.60600008     0.00000000     0.00000000
        0.00000000     7.60600008     0.00000000
       -1.89786986    -1.89786986     4.85670466
PRIMCOORD
22 1
Ti      3.86527198     6.60786902     1.22969998    -0.60383897     0.01412719    -1.41284999
Ti      3.81440000     2.81747002     1.16461202     1.20588177    -0.05092303     0.11976332
Ti      0.31904202     6.68104402     1.00821199    -0.41271852     0.74741997     1.08827021
Ti      0.03043399     2.85153300     1.22759401    -2.13089612    -0.19923100    -1.43393588
Ti      5.63708320     2.98103521     3.60350879     0.55570944    -1.61501411    -0.57174542
Ti      5.93480721    -0.85714776     3.58605483     0.53660306     0.62619883     1.87619149
Ti      1.90781422     2.75983224     3.59348681    -0.93551603     0.02770622     0.89757322
Ti      1.34863420    -1.05056877     3.95205684     0.58124874    -0.17071746    -1.74128078
O       3.94034900     4.64760302     0.70334001    -0.59969204     0.87365809     0.10976609
O       4.18454001     0.85083298     0.78384502    -1.50973460     0.65387908     1.06537941
O       0.01642799     4.84123602     0.73688101     0.33393655    -0.30423207     0.26285657
O      -0.20946698     0.91971800     0.62003698     0.66110337     0.70384721     1.73131492
O       5.58793322     4.80689421     3.97238582     0.27889666     0.33169840    -0.92933175
O       5.52159624     1.00269722     4.02100382     0.84886571    -0.49566311     0.06792780
O       1.95263024     4.76504523     4.10540680    -0.36297485    -1.25119208    -0.06801187
O       1.71864224     0.75854622     4.02095381     0.08787057     1.89282885     0.45329928
O       3.77123522     2.82363620     3.13325379    -0.38827966    -0.05524711     0.05370857
O      -0.02153677     2.80944324     3.27680582     0.11637357     0.24733430    -0.44324884
O       5.61760201     6.59064102     1.83656098     0.06931054    -0.32528452    -1.10216908
O       5.72278102     2.96717299     1.55316301    -0.42601421    -0.21331602     0.79646635
O       1.96689199     6.77137199     2.04851901     0.40376645    -0.91684236    -0.69923748
O       1.81447799     2.93231899     1.61209902     1.69009909    -0.52103553    -0.12070614
