# total energy = -19949.33343289 eV

CRYSTAL
PRIMVEC
        5.02431348     0.00000000     0.00000000
        1.56894114     5.11204372     0.00000000
        0.00000000     0.00000000     9.09761714
PRIMCOORD
24 1
Ti      2.75082502     3.02939240     3.37515107     2.35031878    -2.27300593     1.01835572
Ti      3.84242951     2.08265143     5.72246612    -2.35031878     2.27300593    -1.01835572
Ti      4.97233440     2.08265319     1.17362118    -4.47679389     0.11226186     1.68027825
Ti      1.62092021     3.02939083     7.92399612     4.47679389    -0.11226186    -1.68027825
Ti      1.96635457     0.47337062     1.17365765     2.35092479    -2.27371273    -1.01948263
Ti      4.62689999     4.63867336     7.92395965    -2.35092479     2.27371273     1.01948263
Ti      0.83644966     0.47336872     5.72242965     4.47703248    -0.11268327     1.68076650
Ti      5.75680489     4.63867527     3.37518755    -4.47703248     0.11268327    -1.68076650
O       2.14267776     1.80003753     4.64244440    -0.51875831     0.34089832    -0.92542496
O       4.45057678     3.31200635     4.45517280     0.51875831    -0.34089832     0.92542496
O       1.47441634     1.80005816     0.09366508     1.03567545    -0.78609066    -0.11805147
O       5.11883825     3.31198577     9.00395186    -1.03567545     0.78609066     0.11805147
O       3.66610630     0.75598443     0.09363557     0.51830811    -0.34127602    -0.92543730
O       2.92714823     4.35605945     9.00398137    -0.51830811     0.34127602     0.92543730
O       4.33436778     0.75596385     4.64247391    -1.03626603     0.78660128    -0.11833404
O       2.25888672     4.35608009     4.45514328     1.03626603    -0.78660128     0.11833404
O       1.13686387     3.10943482     2.45749336    -0.22338035    -0.95954505    -1.18951489
O       5.45639067     2.00260907     6.64012384     0.22338035     0.95954505     1.18951489
O       3.30931919     2.00256140     2.09134417     1.50107846    -1.39003710    -1.88182787
O       3.28393534     3.10948248     7.00627287    -1.50107846     1.39003710     1.88182787
O       0.35239335     0.55341290     2.09131511    -0.22339141    -0.95927946     1.18767424
O       6.24086114     4.55863099     7.00630193     0.22339141     0.95927946    -1.18767424
O       2.49946487     0.55346056     6.64015285    -1.50130677     1.39005767    -1.88138332
O       4.09378967     4.55858332     2.45746430     1.50130677    -1.39005767     1.88138332
