# total energy = -39031.08488922 eV

CRYSTAL
PRIMVEC
        7.60600008     0.00000000     0.00000000
        0.00000000     7.60600008     0.00000000
       -3.79573973    -3.79573973     9.71340985
PRIMCOORD
46 1
Ti      2.27778944     4.39238248     6.07343863    -3.35497591     1.64926996     0.12682562
Ti      3.53004602     6.89041898     1.51721103     2.36593926     2.11647609    -0.77318037
Ti      2.09446043     0.60958145     6.10442762    -0.39364684    -0.80477641    -1.98762238
Ti      3.74970602     3.11285803     1.11203699     0.43842107    -1.90974723     0.95706163
Ti     -1.72615656     4.54245847     6.01943260     1.04808102    -1.07455517     0.16312421
Ti     -0.14042999     6.89454000     1.28784603    -1.54742647     0.23921578    -1.36953332
Ti     -1.67811954     0.71943647     5.89072664    -0.02317079     1.09295116     3.32831485
Ti      0.02116000     3.20868901     1.26196201    -2.54326471     0.11716213    -1.57934364
Ti      4.13820345     1.17204448     8.32889563    -3.54421406     0.47646185     1.81221857
Ti      5.51485199     2.51936097     3.52859100    -0.73212472     0.77368174    -0.11437197
Ti      3.81738943    -2.57872556     8.46227163     0.31697369    -1.01680200     2.31585030
Ti      5.62782403    -1.27566902     3.70836902    -1.04164992     0.31421720    -0.90349807
Ti      0.09441147     1.32358846     8.24125763     2.86560224    -1.28060500     1.28653293
Ti      1.76720801     2.76039502     3.30220299     1.65425559    -0.30858186     2.89388130
Ti     -0.07896356    -2.67662557     8.56414561     0.92406819    -0.50619178    -0.12617539
Ti      1.69405598    -1.21326902     3.60726098     1.44617973     0.53729417     3.16601853
O       1.99291047    -1.27617656     5.80471062    -0.04601942     2.06716462    -0.15765213
O       3.35470198     1.05565501     1.20642099    -0.18698380     0.19471948    -2.51807458
O      -1.83214256     2.69014245     5.46691964    -0.09643492     0.00833012    -0.13039920
O       7.24806798     5.02432198     0.91064901     0.07162865    -0.55486612    -0.34827611
O      -1.79858256    -1.23299157     5.72079063     0.81866835     0.39641258     0.04939245
O       0.03349602     1.12916403     0.77381399     0.40763107    -0.74829234     0.50259532
O       3.75008644     3.08192243     8.97994563     1.05105091    -1.34589998    -0.02569741
O       5.26008298     4.57924301     3.89759100     1.18871502    -1.43103413     0.47622299
O       3.83743747    -0.78227453     9.12488463     0.55557883     1.51095844    -2.70651568
O       5.36685000     0.56820502     4.33179099    -0.27647854     1.89908075    -5.04612581
O       0.24217045     2.68886243     9.45518665    -0.10489128     0.81359864    -0.86585711
O       1.94593699     4.60725903     4.16614602    -0.43534063    -2.09358477    -0.65446941
O      -0.10716755    -0.76839257     8.95392461     0.96506599     0.32145461    -0.81024978
O       1.72762201     0.98285800     4.18912100     0.40766424    -0.83909243     0.55704976
O       2.12122844     1.21083544     7.84224560    -0.64754800    -0.02658830     0.95231177
O       3.67183002     2.57758799     2.96344599    -0.21166255     0.57090287     2.13009394
O       2.07527045    -2.74185858     8.12320660    -1.97258424    -0.08406482    -0.78670027
O       3.57867598    -1.08331098     3.38448302     0.29594694    -0.09000433    -0.11124113
O      -1.67258757     1.28799943     8.31735560    -1.62181648    -0.27992228    -0.76254217
O      -0.05329799     2.55069901     3.05061900    -0.96200277     0.47057505     0.91810580
O      -1.82717956    -2.66605955     8.06626962     0.49799613    -0.58467705    -0.16205438
O      -0.09745598     6.29679699     3.30810199    -1.56150481     0.51561333     0.18119753
O       3.98265043     4.53008747     6.43974962     0.39323006    -0.42319577     0.58146548
O       5.49242498    -0.50264102     1.96258401     1.52625497    -0.75375542    -0.62994031
O       4.04208846     0.84344345     6.43996865     0.29536870    -0.06106372     0.93250475
O       5.54859899     2.65121999     1.60712200     0.69527746     1.40848709    -0.85594679
O       0.08504042     4.38564145     6.49738062     0.12279799     0.05703429     1.16899337
O       1.73056598     6.52023198     1.76030902    -0.80760206     0.07651066    -1.24802705
O       0.11507044     1.29940643     6.38837762     0.54141436    -1.14556264    -0.52909723
O       1.82787601     3.53037898     1.44828299     1.21753350    -0.26470931     0.70283111
