# total energy = -19924.78594363 eV

CRYSTAL
PRIMVEC
        6.25430060     0.00000000     0.00000000
        0.99291890     6.58199560     0.00000000
        0.00000000     0.00000000    11.22561212
PRIMCOORD
24 1
Ti      2.85528595     3.90048443     4.16462207    -0.11823788    -1.56135722     0.73434693
Ti      4.39193347     2.68151098     7.06099031     0.11823788     1.56135722    -0.73434693
Ti      5.79844667     2.68151321     1.44813923     0.10397288     0.07166618    -0.39122126
Ti      1.44877278     3.90048247     9.77747327    -0.10397288    -0.07166618     0.39122126
Ti      2.35882664     0.60948675     1.44818425    -0.11823788    -1.56135722    -0.73434693
Ti      4.88839280     5.97250886     9.77742825     0.11823788     1.56135722     0.73434693
Ti      0.95231343     0.60948434     7.06094529    -0.10397288    -0.07166618    -0.39122126
Ti      6.29490601     5.97251127     4.16466709     0.10397288     0.07166618     0.39122126
O       2.32914923     2.31763246     5.72834399     1.68182065     1.78737245    -0.40252666
O       4.91807020     4.26436295     5.49726832    -1.68182065    -1.78737245     0.40252666
O       1.49728886     2.31765907     0.11557396    -1.03442820     0.63086385     0.55402563
O       5.74993063     4.26433641    11.11003809     1.03442820    -0.63086385    -0.55402563
O       4.42161087     0.97336508     0.11553755    -1.68182065    -1.78737245    -0.40252666
O       2.82560855     5.60863034    11.11007451     1.68182065     1.78737245     0.40252666
O       5.25347131     0.97333853     5.72838047     1.03442820    -0.63086385     0.55402563
O       1.99374806     5.60865696     5.49723191    -1.03442820     0.63086385    -0.55402563
O       0.83118275     4.00354283     3.03231794     0.45988568     0.81683592     1.12659869
O       6.41603667     2.57845252     8.19329443    -0.45988568    -0.81683592    -1.12659869
O       3.74335594     2.57839131     2.58052395     0.60569916     1.17666863     0.37087328
O       3.50386348     4.00360405     8.64508823    -0.60569916    -1.17666863    -0.37087328
O       0.33472343     0.71254496     2.58048805     0.45988568     0.81683592    -1.12659869
O       6.91249599     5.86945040     8.64512407    -0.45988568    -0.81683592     1.12659869
O       3.00740415     0.71260617     8.19333020    -0.60569916    -1.17666863     0.37087328
O       4.23981527     5.86938918     3.03228211     0.60569916     1.17666863    -0.37087328
