# total energy = -19517.32606747 eV

CRYSTAL
PRIMVEC
        5.93400000     0.00000000     0.00000000
        0.00000000     9.29699974     0.00000000
        0.00000000     0.00000000     4.64899994
PRIMCOORD
23 1
Ti      4.47219701     7.03073901     2.27504201    -0.60030782     1.10448514     0.00131255
Ti      4.41613401     2.32160400     2.31100098     2.06240191    -0.91986598     0.57300475
Ti      1.35572603     7.00457098     2.17119198     0.79851655     1.01639731    -0.44978921
Ti      1.49083001     2.30297003     2.36647198    -1.63192323    -0.02203590     0.33516476
Ti      2.97431699     4.56230600     0.21672798     0.93558622    -0.33544604    -0.58230212
Ti      2.98278398     9.26949200     4.62208800     0.66865522    -0.22685237     0.09295698
Ti      0.01671999     4.63299598     0.02744303    -0.57228870    -1.09655662    -0.12774119
Ti      0.05667298     0.00132601     4.60376302    -0.91768954     0.24369156    -1.05469982
O       4.61169200     5.57927900     1.05539201    -1.43979645    -0.27999787    -1.17676607
O       4.41462099     0.98035002     0.85537502    -0.26607199    -0.39421068    -0.17340863
O       1.51532102     5.42637498     0.99143803     0.30828850     1.57070756     0.08847709
O       1.43405500     0.82048001     0.83320900     0.77789218     1.20437382     0.82351565
O       4.41962002     8.35433101     3.75750800    -0.53192210    -0.19645549    -0.50448662
O       4.51990901     3.68336301     3.89856898    -0.60015844     0.83210828    -0.96346085
O       1.40046299     8.36406300     3.49428899     0.71191816     1.05595889     1.90721958
O       1.52226298     3.61261101     3.87956802     0.50133676     0.93807222    -0.73662956
O       2.94388400     1.46881401     3.21282702     0.14929347    -0.64977432     0.12829552
O       0.01744999     6.27688501     3.13065902    -0.23543086    -2.33216344     2.01610430
O       5.86526099     1.45156003     3.19813298     1.11952147    -0.28607904    -0.16171139
O       2.94677998     7.92144598     1.40909699     0.22915300    -0.38555815    -0.48206994
O       3.09625800     3.24729302     1.43412401    -1.81788759     0.20890349     0.31016977
O       5.85646802     7.98028900     1.32023199     0.21435064    -0.53940839    -0.07056344
O       0.03761000     3.32962702     1.47220699     0.13656240    -0.51029320     0.20740788
