# total energy = -19938.23428294 eV

CRYSTAL
PRIMVEC
        5.93400000     0.00000000     0.00000000
        0.00000000     9.29699974     0.00000000
        0.00000000     0.00000000     4.64899994
PRIMCOORD
24 1
Ti      4.52162201     6.17275001     2.31548300    -1.58880170     5.12080225    -4.12606392
Ti      4.41449399     2.68273799     2.36976098    -2.48050278    -1.85056401    -2.30474801
Ti      1.51057599     5.40849302     2.42258499     0.03949087     8.32870072    -0.59886131
Ti      1.39276700     2.72384300     2.14723200     3.29421378    -2.78755920    -0.89910405
Ti      2.85155300     4.47773898     0.05751897     4.20674568     5.48726120    -0.99176330
Ti      2.94206401     0.93787799     4.62736099    -0.06204717    -4.67964552    -3.41449131
Ti      0.09027499     4.23219602     4.58790500    -5.51993685     6.48167711     0.95754551
Ti      5.89915701     0.99553799     4.28407497    -0.29280531    -9.50394264     3.07328703
O       4.68270600     5.42012201     0.58436298    -2.00873345    -0.76656801     2.76313268
O       4.52717202     1.39336000     0.97215401    -0.91470654    -0.13895404    -1.29008826
O       1.34235700     5.50896902     0.57577898     0.44370906    -1.46157087     0.67506498
O       1.48424799     1.31634899     0.93842902    -0.77754739     2.58182510     1.25874315
O       4.75167398     8.54920598     3.83256798    -0.02931187     4.59880178     1.14065286
O       4.50541701     3.43250702     3.94991102    -2.09602347    -0.94416497     1.13484448
O       1.45817702     9.21173199     4.03111301     1.12685477    -0.44907959    -1.14664276
O       1.44173903     3.46138999     3.93724400     4.72661856    -2.51552456    -2.37326794
O       3.03239001     6.03923103     3.67191998    -1.14456813    -2.42839190    -0.18216787
O       2.84681797     1.79217698     2.79959102     1.55824439    -2.06734666     2.93864473
O       5.83311501     5.69489401     3.45437500     2.64411087    -2.86112337     0.64729372
O       0.04504801     1.72575602     2.73976399    -1.04453624    -1.27235972     0.24862474
O       2.94979603     6.95602299     1.61331300    -0.22829168    -0.99631621     1.02967192
O       2.86843201     4.01056500     1.83926401     0.78107726    -0.58403478     1.30176107
O       0.16767299     7.07714500     1.92165998     0.06641599    -0.04047226    -0.40599482
O       5.86170100     3.56605299     1.59982200    -0.69966865     2.74855067     0.56392644
