# total energy = -19956.31536950 eV

CRYSTAL
PRIMVEC
        4.89108612     0.00000000     0.00000000
        0.00002681     5.20559471     0.00000000
        0.00000000     0.00000000     8.75396866
PRIMCOORD
24 1
Ti      1.77279936     3.08483061     3.24766000    -0.03342435     0.56751415    -0.60824327
Ti      3.11831357     2.12076415     5.50630891     0.03342435    -0.56751415     0.60824327
Ti      4.21825679     2.12076594     1.12928948    -0.02969985    -0.56696420     0.60428172
Ti      0.67285614     3.08482902     7.62467954     0.02969985     0.56696420    -0.60428172
Ti      1.77278605     0.48203336     1.12932458    -0.03356782     0.56369324     0.60368959
Ti      3.11832687     4.72356156     7.62464443     0.03356782    -0.56369324    -0.60368959
Ti      0.67284283     0.48203142     5.50627381     0.03057454     0.56394958     0.60879529
Ti      4.21827009     4.72356350     3.24769511    -0.03057454    -0.56394958    -0.60879529
O       1.54806908     1.83297844     4.46708329    -1.14412925    -1.01702466    -0.12425863
O       3.34304385     3.37261637     4.28688562     1.14412925     1.01702466     0.12425863
O       0.89752146     1.83299941     0.09012702     1.14376518    -1.01734862    -0.12374184
O       3.99359152     3.37259541     8.66384165    -1.14376518     1.01734862     0.12374184
O       3.34303054     0.76981897     0.09009861     1.14415342     1.01656340    -0.12434708
O       1.54808238     4.43577580     8.66387005    -1.14415342    -1.01656340     0.12434708
O       3.99357821     0.76979800     4.46711170    -1.14355512     1.01693236    -0.12395884
O       0.89753466     4.43579681     4.28685721     1.14355512    -1.01693236     0.12395884
O       0.17772076     3.16633781     2.36466538    -0.41164791     0.25234333    -0.27244962
O       4.71339217     2.03925696     6.38930353     0.41164791    -0.25234333     0.27244962
O       2.62326774     2.03920844     2.01234690    -0.41259768    -0.25257755     0.27331865
O       2.26784519     3.16638632     6.74162186     0.41259768     0.25257755    -0.27331865
O       0.17770745     0.56354040     2.01231895    -0.41182480     0.25180185     0.27297824
O       4.71340547     4.64205437     6.74164981     0.41182480    -0.25180185    -0.27297824
O       2.26783188     0.56358891     6.38933143     0.41271389     0.25240015     0.27295381
O       2.62328104     4.64200585     2.36463743    -0.41271389    -0.25240015    -0.27295381
