# total energy = -4989.15453540 eV

CRYSTAL
PRIMVEC
        2.81935268     0.00000000     0.00000000
        0.22073743     4.41198452     0.00000000
       -0.00000122    -0.00005733     4.41888507
PRIMCOORD
6 1
Ti      1.52004434     2.20596344     2.20944244     0.00000000     0.00000000     0.00000000
Ti      0.00000000     0.00000000     0.00000000     0.00000000     0.00000000     0.00000000
O       1.45269450     0.85981952     0.86117555    -0.63841569     0.72360923     0.72823284
O       1.58739414     3.55210737     3.55770927     0.63841569    -0.72360923    -0.72823284
O       0.06734924     1.34612069     3.07061889     0.63841775    -0.72404734     0.72867430
O       0.15338687     3.06580640     1.34826594    -0.63841775     0.72404734    -0.72867430
