# total energy = -19067.43332583 eV

CRYSTAL
PRIMVEC
        5.17600016     0.00000000     0.00000000
        0.00000000     5.50899976     0.00000000
        0.00000000     0.00000000     9.26300011
PRIMCOORD
22 1
Ti      2.00369399     3.31642997     3.28460700    -1.29139438     1.29706855    -0.77740238
Ti      3.36331201     2.32258901     6.11559400     2.86829007     2.68513464    -0.62378945
Ti      4.46777399     2.12795201     1.40487199     1.30195056    -0.62352797     1.31860000
Ti      1.18319800     2.41168499     7.80498698    -2.02934908    -1.87418269     0.97975625
Ti      1.96707498     0.73022502     1.46648103    -1.89856884    -1.17542858    -0.74920688
Ti      3.19208999     0.19965498     7.93188998    -0.19710367    -6.59617815    -0.23760833
Ti      0.86904298     5.19810500     6.02505500    -2.51989518    -0.05355918     0.44252738
Ti      4.18855102     5.15719299     3.53221898     2.40875303    -0.15492676     1.04342630
O       3.48623798     3.53704201     4.32601201     0.02255501    -0.85602238     2.01742559
O       1.07872602     2.01388600     0.56533699    -0.65531428     2.01873222    -2.72230535
O       4.37434600     4.30968001     6.79752102     1.62595801    -0.43682133     1.31631712
O       3.69522600     0.59137902     0.47117403    -0.87025935    -1.30938568     0.70980523
O       1.31919300     0.30217598     7.93463403     0.03362027     1.84018781     0.73720420
O       4.46211100     0.51682800     5.18235801    -1.33068573     2.30143463     0.21755655
O       1.04843200     4.64458999     4.26314400     0.32713932    -0.59695098     1.57973213
O       0.17728602     3.17707400     2.62426401    -0.39437549     1.68441849    -0.79328126
O       3.82392800     1.74206701     7.98977001     2.17240866     6.34286346    -3.36503047
O       2.85958199     1.68199698     2.62426603     0.91303018     2.02835972     1.64172942
O       2.06976500     3.80824001     7.18895200     0.37867684    -0.38986783    -1.49961010
O       0.14971298     0.82445001     2.71036401     0.86305075    -0.67093630    -2.64514857
O       1.85790698     1.46150200     5.85417499    -1.77367489    -0.69872017    -0.50253181
O       2.78711397     4.80362998     2.18315800     0.04518793    -4.76169125     1.91183471
