# total energy = -19955.59898596 eV

CRYSTAL
PRIMVEC
        5.93400000     0.00000000     0.00000000
        0.00000000     9.29699974     0.00000000
        0.00000000     0.00000000     4.64899994
PRIMCOORD
24 1
Ti      4.47370802     6.91636603     2.61116899     0.87027966     1.93282238    -1.44839242
Ti      4.40723299     2.46921302     2.15371299     1.13071143    -0.67698354     1.05780340
Ti      1.55889998     6.30869401     2.21285299    -1.19555467     3.98874048     1.60698712
Ti      1.51560799     2.53239202     2.31991799    -0.98053683    -1.74660810     0.42158548
Ti      3.03467701     4.58376398     0.08770002     3.33143797     1.99580646    -1.52027972
Ti      2.73811999     0.37521001     4.47055302     1.49504151    -2.41235309    -1.20490783
Ti      0.04244398     4.38455102     4.62760801    -2.21612231     2.24827757    -0.68878645
Ti      5.83246502     0.29563000     4.57543600     0.11408143    -1.92020700    -1.48617788
O       4.49233300     5.32535800     1.03494502     0.30001263    -0.11092077    -0.96000605
O       4.30907400     1.11877199     0.84636498     1.51413478     0.38400057     0.21184021
O       1.50611402     5.40479899     0.68603899    -0.92719542     0.25775499     0.52242444
O       1.53972799     1.35729398     0.72833999    -1.88737194    -0.34217616     0.61585888
O       4.44369103     8.58666099     3.78561302     0.50995742    -0.58191157     0.38733426
O       4.50266301     3.68020197     3.65993200    -0.73168892    -0.55396289     1.53049909
O       1.48192501     8.71208002     3.67341501    -1.00254934    -0.17839400     1.94211769
O       1.61423700     3.69034302     3.79000001    -0.50737037    -1.12400650    -0.46544929
O       3.08677800     5.96005500     3.52447897    -0.45282183    -0.05215690    -0.57075143
O       2.90417401     1.38741099     2.93115602     1.02020383     0.77156572     0.84811700
O       5.86670802     5.88518398     3.26385701     1.30152710    -2.39530461     2.59831617
O       5.88203501     1.49188899     3.17784798    -0.12242055     0.26822632    -0.39076386
O       2.95340798     7.39968599     1.70522299     0.11915936     1.37113846    -1.42996840
O       2.92672501     3.37080601     1.47108598     0.10276060    -0.85416835     1.26157471
O       0.25531098     7.52160399     1.67878498    -1.06265636     0.93982160    -0.78381189
O       0.09146898     3.56131098     1.76510601    -0.72301890    -1.20900129    -2.05516322
