# total energy = -4885.41366945 eV

CRYSTAL
PRIMVEC
        5.23883686     0.00000000     0.00000000
       -0.00000680     1.98714474     0.00000000
       -2.61944984    -0.99366669     5.78179283
PRIMCOORD
6 1
Ti     -0.00022385     1.49041479     1.44544796    -0.05745081    -0.04758188   103.84668514
Ti      2.61960412    -0.49693700     4.33634442     0.05745081     0.04758188  -103.84668514
O       0.00005562     0.49677037     0.94180673     0.05612566     0.04854887   -97.12892617
O       2.61932451     0.49670738     4.83998570    -0.05612566    -0.04854887    97.12892617
O      -0.00002271    -0.49682510     3.83270314    -0.00080373    -0.00010310    -0.07651246
O       2.61940274     1.49030280     1.94908928     0.00080373     0.00010310     0.07651246
