# total energy = -19960.27370653 eV

CRYSTAL
PRIMVEC
        7.60600008     0.00000000     0.00000000
        0.00000000     7.60600008     0.00000000
       -1.89786986    -1.89786986     4.85670466
PRIMCOORD
24 1
Ti      3.77921802     6.49009301     1.25762101    -0.63466214     1.91991312    -0.62841898
Ti      3.83221502     2.87102402     1.25393000    -1.64259229    -2.09656237    -0.99047981
Ti      0.01450300     6.75180799     1.16413100     0.79541965    -0.25959204     1.22630199
Ti     -0.01844299     2.93162202     1.22036100     0.77396430     0.21751747    -1.03543274
Ti      5.72500520     2.90965523     3.61700080     0.45294601    -0.46254780     0.54736827
Ti      5.73906920    -0.97153879     3.58608383     0.58249572     0.56264371     0.19863322
Ti      1.91983924     2.80007220     3.63108379    -1.06574168    -0.19765903    -0.18617365
Ti      1.92737224    -1.07315876     3.63846381    -0.77974337     0.49211010     1.35140138
O       3.51042799     4.59945202     0.80705600     0.94502037     1.67988075    -0.69317635
O       3.61093399     0.80171401     0.96876802     1.20775970     1.11323589    -0.65091177
O       0.07726401     4.91444298     0.70817997    -0.53023726    -0.36866188     0.14516634
O       0.01006500     1.02589498     0.69048201    -0.39865869    -0.30631723     0.57211643
O       6.01155924     4.84369521     3.98174580    -0.61344642    -0.50316816     0.28383472
O       5.71817824     1.07538623     4.09460883    -0.27358168    -0.37499374    -1.18033862
O       1.66249923     4.66355020     4.10567080     0.83849464    -0.66214544     0.30942518
O       1.77791221     0.80678623     4.08813482     1.20813688     0.97777238     0.55621235
O       3.79237623     3.07663124     3.28827679     0.00224689    -0.79581894    -0.13365730
O       3.77650223    -1.14480280     3.21149180     1.52976941    -0.20264003     1.03161696
O       0.10375520     2.68484920     3.06822780    -3.03478474    -0.02815539     1.77685534
O       0.10332625    -0.99945977     3.15470679    -2.03503508     0.59479717    -0.56039451
O       5.69479098     6.63964998     1.66529900     0.65042146     0.13424892    -0.90789826
O       5.61951197     3.08491397     1.61878999     1.10702127    -0.35760304     0.07399689
O       1.97253402     6.69383498     1.74089801    -1.56536635    -0.35930126    -0.99224718
O       1.75512203     3.05612700     1.65029498     2.48015285    -0.71695341    -0.11379990
