# total energy = -19517.14237136 eV

CRYSTAL
PRIMVEC
        7.60600008     0.00000000     0.00000000
        0.00000000     7.60600008     0.00000000
       -1.89786986    -1.89786986     4.85670466
PRIMCOORD
23 1
Ti      3.78374699     6.62587603     1.24245003     1.25220792     0.58183803    -1.15245191
Ti      3.69682200     2.81137199     1.26537600     0.05474549    -1.11701438     0.78510541
Ti      0.13884198     6.78593002     1.12112302    -1.02751142     1.23782080    -1.32270580
Ti     -0.09963900     2.99860400     1.18096302     0.14064145    -1.32497300     0.97466212
Ti      5.60154021     2.81887223     3.73342181    -1.15572955     1.52849466    -1.05344743
Ti      5.75250025    -0.81567376     3.47396583    -0.20609122    -1.41219513     1.01290883
Ti      2.00179721     2.68873024     3.84247381    -0.37979861     0.92135439    -1.19358135
Ti      1.96354923    -1.05344876     3.57107980     0.00151669    -0.59839183     1.65445510
O       4.21539099     4.60145803     0.88321599    -1.39178159    -0.02146178     0.54674298
O       3.50204599     0.89452202     0.60456400    -0.03239668     0.19645807     1.46184135
O       7.16881199     4.93939803     0.84348298     1.13505839    -1.00005974    -0.55847004
O       0.13928601     1.09246802     0.64591698     0.49509104    -1.23397751     0.79281487
O       5.79095424     4.87797621     3.94175180     0.39626165    -1.16704216    -0.13631763
O       5.37283124     0.97605421     4.15728479     0.82317369     1.19104470    -1.13470152
O       2.08809723     4.59131624     4.20448984    -1.05916094     0.57719179    -0.76680301
O       2.07556621     0.82965124     4.05226279    -0.73928885     0.16511168     0.03694265
O       3.67333225     2.73154624     3.25321181     2.83787339     0.27191534    -1.20697912
O       3.80055122    -1.17151577     3.25254981     0.45218805     0.47701360    -0.63259780
O       0.16776321    -0.91190575     2.99516980    -2.36148071     0.38523264     1.17700081
O       5.57246801    -0.48696901     1.60546202     1.36738027    -0.38839716     0.58218822
O       5.75731301     2.52756798     1.74227403    -0.18457391     0.70789207     0.85972862
O       1.93400600     6.44535001     1.50762397     0.27478058    -0.21106168    -0.27613761
O       1.78595999     2.98021499     1.75297902    -0.69310539     0.23320686    -0.45019776
