# total energy = -4987.78976742 eV

CRYSTAL
PRIMVEC
        3.73374056     0.00000000     0.00000000
       -0.00000754     3.37814660     0.00000000
       -1.86689662    -1.68910721     4.54954888
PRIMCOORD
6 1
Ti     -0.00016321     2.53373688     1.13738700     0.00050985    -0.00422150     3.80118897
Ti      1.86699931    -0.84469739     3.41216134    -0.00050985     0.00422150    -3.80118897
O       0.00003793     0.84453029     0.74108426     0.00099682     0.00464521     0.52803896
O       1.86679802     0.84450910     3.80846417    -0.00099682    -0.00464521    -0.52803896
O      -0.00001914    -0.84451848     3.01585860     0.00067620    -0.00007919     1.60273297
O       1.86685510     2.53355782     1.53368983    -0.00067620     0.00007919    -1.60273297
