# total energy = -19074.92154040 eV

CRYSTAL
PRIMVEC
        5.17600016     0.00000000     0.00000000
        0.00000000     5.50899976     0.00000000
        0.00000000     0.00000000     9.26300011
PRIMCOORD
22 1
Ti      1.86947501     3.40731701     3.25850300     0.17361638     0.19405048     0.14835168
Ti      3.63330099     2.29670197     5.99992898    -1.90165314    -0.03631222    -0.42846730
Ti      4.45310001     2.23482898     1.25261499    -0.13827089     0.21934989    -1.47596237
Ti      0.68974000     3.23381599     8.06410100     1.19039189     0.63121532     1.22986117
Ti      1.77031598     0.45805101     1.27238098     0.35496895     0.83683165    -2.53276972
Ti      3.30442300     4.97914702     8.05617302    -0.84716466     0.30480388     0.56848115
Ti      0.59259502     0.24145400     5.98102502     1.47657712     0.10776706    -0.65255831
Ti      4.40643599     5.12752001     3.43877501    -0.32644358    -0.79942080     0.33688432
O       3.40145701     3.39132602     4.47285901    -0.53995372     0.65026874     0.51765967
O       0.92398502     1.92938999     0.08933703    -0.63398002    -0.07306487     0.94812267
O       4.28359702     3.79671299     9.08519999     0.24306138    -1.59153479     0.38418518
O       3.55693400     0.73261801     0.17858499    -0.82949218     0.99331908    -0.38558103
O       1.49447900     4.74557199     9.03187602     0.70938794     0.92941043     0.25371964
O       4.52685202     1.04596800     4.68986799    -0.79100944    -0.14440735     0.52704215
O       0.86756901     4.85033300     4.27681101     1.39712692    -1.34442854     1.85330610
O       0.11998703     3.53833701     2.42678702    -0.12606381    -1.10289285    -0.28810147
O       0.01211599     1.84624402     6.89627999     0.25848364     0.12690790     0.01888502
O       2.62978900     2.02579503     2.18876601     0.42529662    -0.18414171     0.18308730
O       2.49337398     3.40104700     7.24764802    -0.61148543    -0.95209914    -1.44648621
O       0.05907200     0.67877502     2.14827998     0.46322143     0.43074839    -0.23012179
O       2.44301398     0.66943499     6.34222601    -0.08534909     0.30959462     0.60075879
O       2.74320602     4.73117101     2.36524900     0.13873369     0.49403457    -0.13029687
