# total energy = -19074.62889190 eV

CRYSTAL
PRIMVEC
        5.17600016     0.00000000     0.00000000
        0.00000000     5.50899976     0.00000000
        0.00000000     0.00000000     9.26300011
PRIMCOORD
22 1
Ti      1.86350901     3.37800202     3.25953802     1.18812701     0.94670625     1.04003758
Ti      3.46591397     2.28561698     5.94694098    -1.19393848    -0.14746336    -0.57960092
Ti      4.51088701     2.26984200     1.30781501    -0.92025756    -0.66219249    -2.45869801
Ti      0.73044400     3.18171801     8.02042900    -0.00009565     0.18710825     1.19473166
Ti      1.84287602     0.55894500     1.27717099     1.11064139    -0.21764036    -1.85028685
Ti      3.16226699     5.00490901     8.04001899     0.38935258     0.32691974     1.37118499
Ti      0.64207002     0.21423402     6.00579703    -0.10660929     0.38124820    -1.37474032
Ti      4.51415500     4.94982599     3.37451601    -0.64485374     0.98449505     1.87889192
O       3.41399602     3.40176102     4.41623800     0.63982286    -1.05631087     1.31320197
O       0.85282200     1.82924902     0.19242398     0.05477454     0.76893522    -1.12685503
O       4.32674301     3.58458901     8.97208999    -0.81771087     0.40503812     0.27829271
O       3.51902802     0.87754400     0.24591401    -0.40464808    -0.80780595    -1.06798523
O       1.62826400     4.70277002     9.05306602    -0.28993673     0.00853581     1.04396829
O       4.29271501     0.53823401     4.95641197    -1.57950870     1.04252513     0.06568605
O       1.12397100     4.94241402     4.32562999    -0.46032508    -1.25990787     1.49745115
O       0.20680501     3.64297901     2.36786102    -0.20850395    -1.53802780    -0.64163626
O       0.02778699     2.26190201     6.46324202     0.49669129    -0.76897482     0.54022343
O       2.63288902     2.15998400     2.08056201     0.67015135    -0.11943679     0.67750059
O       2.35887501     3.50442199     7.06720498     0.72562317    -0.32276921    -1.26161354
O       0.15933199     0.73512399     2.19577401    -0.59611820     0.22863569     1.17306162
O       2.18162402     0.80031598     6.84605297     1.95327757     0.42364083     0.01668081
O       2.79247401     4.80756198     2.53038400    -0.00595519     1.19674175    -1.72949689
