# total energy = -19960.73196957 eV

CRYSTAL
PRIMVEC
        7.60600008     0.00000000     0.00000000
        0.00000000     7.60600008     0.00000000
       -1.89786986    -1.89786986     4.85670466
PRIMCOORD
24 1
Ti      3.67849702     6.69565800     1.27722999    -0.09180719    -0.61483198     1.38699857
Ti      3.79061502     2.98447502     1.24657602     0.47382286    -0.04748521    -0.39241965
Ti      0.02119000     6.59535398     1.19480000     0.38497450    -0.78294337    -0.98299687
Ti      0.10394698     2.69688200     1.10156399    -1.37961899     1.69549815     0.64680726
Ti      5.74751524     2.81846624     3.59835079     0.75092824    -0.35033196     0.10874202
Ti      5.78007123    -1.04849079     3.55221183    -1.16615872     0.39295213     0.05714279
Ti      1.91669323     2.97701722     3.69549684    -0.91541257    -0.78463927    -1.03993474
Ti      1.79372122    -0.95591780     3.78409079     1.45079178     0.55020111    -1.15494177
O       3.59610301     4.81829301     0.73218203     0.62068022    -0.16688497     1.26887151
O       3.73421801     0.92340398     0.83101302    -0.00896750     1.54287201     0.73081372
O       0.21515199     4.62939001     0.66556798    -1.03869212     0.95728634    -0.00685225
O       0.17425098     0.88723398     0.78733399    -0.43747825    -0.54313700    -0.24698900
O       5.88919324     4.73257624     4.06743981    -0.61999913    -0.08126540     0.08888873
O       5.67877025     0.83223225     3.85243483    -0.35432309     0.52645157     0.86776049
O       1.67739822     4.81985122     4.20268884     0.23303845    -0.29024114    -1.39224928
O       1.92307722     1.08676121     4.18168981     0.16891691    -1.35367295    -1.13577290
O       3.79660822     3.06960223     3.12974280    -0.41715984    -0.12437973     1.62851164
O       3.68572923    -1.15525278     3.19032883     0.44865664     0.56202459     0.79280278
O      -0.01644577     2.91382425     3.06936881     0.29033756    -0.53191310     1.25820451
O       0.01570021    -0.82239177     3.18103881     0.05303931    -0.15211629     0.47143636
O       5.71961897     6.52186999     1.65455401    -0.28120474    -0.05214225    -0.67010429
O       5.73965500     2.92546800     1.67502999    -0.98355994    -0.29018612    -1.72050008
O       1.82905603     6.50463702     1.65449601     0.29396333     0.58880573     0.27407533
O       1.79756199     2.97400202     1.72344802     2.52523228    -0.64992113    -0.83829513
