# total energy = -19074.51928535 eV

CRYSTAL
PRIMVEC
        7.60600008     0.00000000     0.00000000
        0.00000000     7.60600008     0.00000000
       -1.89786986    -1.89786986     4.85670466
PRIMCOORD
22 1
Ti      4.07023000     6.65982100     1.14430601     0.81505440    -0.26498467     1.34368086
Ti      3.52831800     2.66489700     1.18072198     1.08435828     0.88801514     0.15770921
Ti      0.16783603     6.82546200     1.11573398    -2.45537589    -1.25460856    -1.29834947
Ti     -0.17212199     2.94956700     1.10437398    -0.83534710     0.80616172     0.97090136
Ti      5.54710121     2.83726622     3.57284080     0.85199243     0.37588385    -0.13710181
Ti     -1.25239279    -0.86037479     3.82167682    -0.49931382    -0.69728241    -4.18298559
Ti      1.83060821     2.84547423     3.76634679    -0.87478938    -1.44947126    -1.13396310
Ti      1.48969222    -1.00843478     3.70073982     1.29353765     0.00339077     1.24285630
O       3.78698502     4.54761302     0.74536600    -0.41502480     1.61961973     0.75957615
O       4.01713199     0.88565698     0.75906899    -0.82149245    -1.79380021     1.31849459
O       7.26221902     4.77163100     0.67105401     0.82609935     0.45082845     0.31550533
O      -0.16702501     1.02833898     0.50238998    -0.96275636    -0.80690529     4.75872445
O       5.93438625     4.76973121     4.02506779     0.09410421     0.88720627    -0.14448551
O       5.55944723     0.95400524     3.96654179     1.15181839     0.58556356    -0.34977378
O       2.33328622     4.63941221     4.22442781    -0.82457443     1.05060765    -1.68949745
O       1.98030520     0.73008421     4.09759281    -1.02508995     1.00407452    -1.26131349
O       3.63228820     2.66812720     3.11406582     0.53570780     0.28462380     0.52052723
O      -0.04803977     3.03717425     3.22889982     0.92896537    -0.94355124     0.08610165
O       5.83341500     6.67067099     1.91136002    -0.40215334     0.22959368    -0.27079049
O       5.62545199     2.86653798     1.63116501     0.04418417    -0.37189350     0.16148565
O       1.81276499     6.70386601     1.88861699     2.05033289    -0.40442722    -1.04063125
O       1.75379199     2.84746802     1.53443098    -0.56023716    -0.19864530    -0.12667084
