# total energy = -19072.28969607 eV

CRYSTAL
PRIMVEC
        5.17600016     0.00000000     0.00000000
        0.00000000     5.50899976     0.00000000
        0.00000000     0.00000000     9.26300011
PRIMCOORD
22 1
Ti      1.74613099     3.39453601     3.22115299     0.09623437     0.19883942     0.05343474
Ti      3.78024801     2.34329899     6.00394300    -2.84650253    -0.05884563    -0.75477255
Ti      4.27431202     2.10091602     1.18336998     0.97160842     2.06309328    -0.54702477
Ti      0.88365399     3.23735602     8.21345302    -0.94929303    -0.41028085     0.15683452
Ti      1.73449898     0.46989299     1.32954302     0.68478916     0.43095999    -1.29742310
Ti      3.14804101     5.14294198     7.99175601     2.28657802    -1.88544464    -0.49768965
Ti      0.62399798     0.23217101     6.05894002     1.07852161     1.48560787    -2.46136631
Ti      4.30858001     5.02507500     3.46243897     1.77815118    -0.97554786     1.08555152
O       3.33632598     3.41343700     4.35921402     0.67437387    -0.07123270     2.16336557
O       1.07468602     2.11123302     0.40060200    -1.10387244    -0.33132225    -0.88315807
O       4.33731402     3.78715901     8.92087601     1.07731551    -0.30421278     0.96407457
O       3.34160198     0.83840499     0.12947798     0.92264791     0.71582804    -0.72806161
O       1.56263698     4.91100603     8.81454599    -2.11833268     0.84963961     1.25210739
O       4.53069602     1.01934599     4.67654097    -0.22411518    -1.27638324     0.09445928
O       1.02481398     4.72654399     4.28217697    -1.43804630     0.14090062     1.91967992
O       5.17034998     3.50670402     2.30798700     0.58647116    -0.48840822     0.85353432
O       0.30889600     2.24061898     6.47593302     1.18354839    -0.14842110     1.88506206
O       2.74128601     1.86613802     2.30113801    -0.49714226    -0.00839414     0.55950851
O       2.64781801     3.09588901     7.65889500     0.02783374     0.07238584    -3.56753217
O       5.16091099     0.62280098     1.92320502    -0.09699542    -0.70787279     1.52548312
O       2.51145702     0.66048401     6.33745601    -0.41295403    -0.47729925     0.93162569
O       2.81661799     4.68063501     2.42958399    -1.68081946     1.18641028    -2.70769325
