# total energy = -4979.34405253 eV

CRYSTAL
PRIMVEC
        3.89319976     0.00000000     0.00000000
        0.00000000     2.31381617     0.00000000
        0.00000000    -0.00009237     5.27515795
PRIMCOORD
6 1
Ti      1.94659988     1.15686176     2.63757874     0.00000000     0.00000000     0.00000000
Ti      0.00000000     0.00000000     0.00000000     0.00000000     0.00000000     0.00000000
O       1.94659988     0.45091064     1.02805051     0.00000000    -1.75293970    -1.90820817
O       1.94659988     1.86281288     4.24710696     0.00000000     1.75293970     1.90820817
O       0.00000000     0.70591458     3.66563041    -0.00000000     1.75250416    -1.90972023
O       0.00000000     1.60780893     1.60952707    -0.00000000    -1.75250416     1.90972023
