# total energy = -19075.98090739 eV

CRYSTAL
PRIMVEC
        5.17600016     0.00000000     0.00000000
        0.00000000     5.50899976     0.00000000
        0.00000000     0.00000000     9.26300011
PRIMCOORD
22 1
Ti      1.89114900     3.22376098     3.41310701    -0.15057466     1.23902330    -0.76023281
Ti      3.30270502     2.23796198     5.85850498     0.28657938     0.74953084     0.57971764
Ti      4.46654799     2.25502598     1.22751400     0.93948710     0.07081849    -1.13474137
Ti      0.69128001     3.30656098     8.06054302     0.39142643    -0.47336624     1.05926584
Ti      1.87658202     0.53472800     1.23139102     0.00295086    -0.47880489    -0.88681520
Ti      3.31830898     5.00429198     8.05796000    -0.98006658     0.06323605     1.45359608
Ti      0.72324697     0.51873902     5.84222998    -0.13763506     0.14063502    -0.74577420
Ti      4.46383098     4.96879700     3.48011900    -0.13375166    -0.46131521    -1.11220282
O       3.42840600     3.58630699     4.46957700     0.26482707    -0.89986664     1.45831354
O       0.91190602     1.92035598     0.02290999    -0.21718168    -0.22143608     0.94176536
O       4.24705701     3.62968603     9.15982700    -0.42978602     0.41108895    -0.11113598
O       3.50411798     0.83590601     0.17174802     0.23844625    -0.41556730    -1.36418593
O       1.68519099     4.64935799     9.04486599    -0.08900777     1.16124740     1.05525749
O       4.24639602     0.80639300     4.66425999     0.24242658     0.95680580     1.17079674
O       0.94743599     4.64450898     4.49468699    -0.02965306     0.78483776     1.36243604
O       0.15013902     3.35359399     2.57152600    -0.04659021    -0.71953583    -0.64559190
O       5.01133502     2.23901901     6.74446100    -0.02588948    -1.49995000    -1.29734700
O       2.78921698     2.12411103     2.16149999    -0.64843374    -0.18169350     0.31888350
O       2.34036100     3.26171500     7.17441799     1.39456096     0.27236786    -1.55555219
O       0.16842299     0.60213502     2.06051101     0.08182667    -0.12478494     0.70370940
O       2.45401499     0.61099499     6.70188800    -0.39561836    -0.06535592    -0.51827263
O       2.80475399     4.90612198     2.45275100    -0.55834277    -0.30791440     0.02811065
