# total energy = -19904.10226077 eV

CRYSTAL
PRIMVEC
        6.68506297     0.00000000     0.00000000
        0.70975507     7.07943896     0.00000000
        0.00000000     0.00000000    11.97981139
PRIMCOORD
24 1
Ti      2.84361406     4.19526901     4.44442469    -0.12933605    -1.31114123     0.63673522
Ti      4.55120418     2.88417001     7.53538711     0.12933605     1.31114123    -0.63673522
Ti      6.05459028     2.88417241     1.54543336     0.22348525     0.44000410    -0.53753508
Ti      1.34022798     4.19526695    10.43437865    -0.22348525    -0.44000410     0.53753508
Ti      2.48873667     0.65554959     1.54548142    -0.12933605    -1.31114123    -0.63673522
Ti      4.90608159     6.42388970    10.43433059     0.12933605     1.31114123     0.63673522
Ti      0.98535049     0.65554699     7.53533912    -0.22348525    -0.44000410    -0.53753508
Ti      6.40946770     6.42389224     4.44447275     0.22348525     0.44000410     0.53753508
O       2.36578154     2.49279082     6.11320621     1.58063202     1.61399338    -0.27349426
O       5.02903671     4.58664826     5.86660559    -1.58063202    -1.61399338     0.27349426
O       1.47662566     2.49281945     0.12333888    -1.17910218     0.90815743     0.31093056
O       5.91819266     4.58661970    11.85647265     1.17910218    -0.90815743    -0.31093056
O       4.67415930     1.04692857     0.12330004    -1.58063202    -1.61399338    -0.27349426
O       2.72065895     6.03251051    11.85651149     1.58063202     1.61399338     0.27349426
O       5.56331525     1.04690001     6.11324512     1.17910218    -0.90815743     0.31093056
O       1.83150293     6.03253908     5.86656675    -1.17910218     0.90815743    -0.31093056
O       0.67459704     4.30611625     3.23604601     0.48746489     0.43207970     0.86491171
O       6.72022114     2.77332284     8.74376579    -0.48746489    -0.43207970    -0.86491171
O       3.86346387     2.77325691     2.75389798     0.51371792     0.91407816     0.18562292
O       3.53135438     4.30618211     9.22591368    -0.51371792    -0.91407816    -0.18562292
O       0.31971963     0.76639656     2.75385969     0.48746489     0.43207970    -0.86491171
O       7.07509854     6.31304246     9.22595191    -0.48746489    -0.43207970     0.86491171
O       3.17647697     0.76646248     8.74380402    -0.51371792    -0.91407816     0.18562292
O       4.21834128     6.31297660     3.23600778     0.51371792     0.91407816    -0.18562292
