# total energy = -4979.32993077 eV

CRYSTAL
PRIMVEC
        4.71590378     0.00000000     0.00000000
       -0.00001050     4.71590378     0.00000000
       -2.35798888    -2.35799413     6.01854206
PRIMCOORD
6 1
Ti     -0.00020767     3.53710645     1.50463535    -0.00239961     0.00239961     0.00000000
Ti      2.35811195    -1.17919693     4.51390631     0.00239961    -0.00239961     0.00000000
O       0.00004711     1.17896793     0.98037126    -0.00042809    -0.00251325    -1.33667435
O       2.35785704     1.17894146     5.03817047     0.00042809     0.00251325     1.33667435
O      -0.00002664    -1.17894746     3.98964222    -0.00251325    -0.00042809    -1.33667435
O       2.35793072     3.53685679     2.02889951     0.00251325     0.00042809     1.33667435
