# total energy = -19961.14903524 eV

CRYSTAL
PRIMVEC
        7.60600008     0.00000000     0.00000000
        0.00000000     7.60600008     0.00000000
       -1.89786986    -1.89786986     4.85670466
PRIMCOORD
24 1
Ti      3.71599600     6.69678699     1.26911400     0.59903461     0.30007408     1.08076567
Ti      3.75834198     2.96956101     1.23337601     0.38814339    -0.30215204    -0.97456982
Ti      0.06582901     6.52315299     1.18095899    -0.40237497     1.35311270     0.11844485
Ti      0.03392000     2.83166398     1.09516698    -0.13626775    -1.28184530     1.27479867
Ti      5.68921721     2.82324223     3.55183580     0.89361269    -0.20087599    -0.35979825
Ti      5.71514325    -1.04753378     3.57919781    -0.20882662     0.28622508     0.65680449
Ti      1.88493624     3.02513123     3.69374182    -0.48536584    -2.35861419    -0.76920905
Ti      1.82437122    -0.96543478     3.70107680     0.51640215     2.03167233     0.15655916
O       3.74970602     4.86060502     0.94151899     0.28159272    -0.46528500    -0.98121818
O       3.72097302     1.06610901     0.79164297     0.08634050    -1.03241554     0.46522972
O       0.09113602     4.68478799     0.72611400    -0.04100371     0.55137302    -0.42067249
O       0.25299901     0.85739902     0.77761798    -0.69608890    -0.40521784    -0.07615070
O       5.83815224     4.70488821     4.00655379    -0.43285283    -0.53034087     0.45896368
O       5.71508525     0.87670425     4.06851483    -0.01721406     0.43350564    -1.41014236
O       1.74922424     4.85407624     4.12444082     0.27929004    -1.02754356     0.54231271
O       1.88002125     1.11563921     4.07611879    -0.14102506    -0.51701150     0.71044235
O       3.82139821     2.96743620     3.33244679     0.23447750     0.07497545    -0.54201163
O       3.77357324    -0.97794379     3.27023179     0.19245794     0.32328677    -0.21622908
O       0.01986023     2.82572624     3.05193882    -0.74728473     0.23054139     1.50698094
O       0.00640723    -1.03461180     3.26326084    -0.03500327     0.62995316    -0.83952926
O       5.71376998     6.50965701     1.63200402     0.13443866     0.55844073    -0.20204045
O       5.72806602     2.88498001     1.47847800    -0.60422001    -0.27245630     1.09191372
O       1.89801899     6.33766599     1.72223599    -0.25294882     1.10427251    -0.30414182
O       1.92956499     2.84975602     1.77161399     0.59468635     0.51632553    -0.96750211
