# total energy = -19905.61614665 eV

CRYSTAL
PRIMVEC
        6.65060485     0.00000000     0.00000000
        2.72243683     6.53376041     0.00000000
        0.00000000     0.00000000    12.15829006
PRIMCOORD
24 1
Ti      4.02383798     3.87190049     4.51063889    -0.26556214    -2.06790999     0.49421609
Ti      5.34920380     2.66186010     7.64765130     0.26556214     2.06790999    -0.49421609
Ti      6.84484137     2.66186232     1.56845760    -0.06074928    -1.11281551     0.16138383
Ti      2.52820046     3.87189853    10.58983266     0.06074928     1.11281551    -0.16138383
Ti      2.66261970     0.60502026     1.56850634    -0.26556214    -2.06790999    -0.49421609
Ti      6.71042212     5.92874053    10.58978392     0.26556214     2.06790999     0.49421609
Ti      1.16698202     0.60501785     7.64760249     0.06074928     1.11281551     0.16138383
Ti      8.20605979     5.92874293     4.51068763    -0.06074928    -1.11281551    -0.16138383
O       3.06357470     2.30064818     6.20428237     1.80391724     2.03364102    -0.77329633
O       6.30946702     4.23311242     5.95400782    -1.80391724    -2.03364102     0.77329633
O       2.17901019     2.30067458     0.12517641    -0.25403331    -0.72724734     1.55530459
O       7.19403168     4.23308613    12.03311338     0.25403331     0.72724734    -1.55530459
O       4.94824871     0.96623206     0.12513694    -1.80391724    -2.03364102    -0.77329633
O       4.42479307     5.56752853    12.03315285     1.80391724     2.03364102     0.77329633
O       5.83281329     0.96620572     6.20432178     0.25403331     0.72724734     1.55530459
O       3.54022837     5.56755497     5.95396835    -0.25403331    -0.72724734    -1.55530459
O       1.89757229     3.97420365     3.28425749     0.61790497     2.68130164     2.55591429
O       7.47546942     2.55955695     8.87403270    -0.61790497    -2.68130164    -2.55591429
O       4.63341856     2.55949615     2.79492628     0.57932401     2.09497934     1.59765119
O       4.73962316     3.97426445     9.36336371    -0.57932401    -2.09497934    -1.59765119
O       0.53635397     0.70732322     2.79488741     0.61790497     2.68130164    -2.55591429
O       8.83668781     5.82643737     9.36340252    -0.61790497    -2.68130164     2.55591429
O       3.37840485     0.70738409     8.87407144    -0.57932401    -2.09497934     1.59765119
O       5.99463687     5.82637651     3.28421868     0.57932401     2.09497934    -1.59765119
