# total energy = -4984.48573862 eV

CRYSTAL
PRIMVEC
        3.28747958     0.00000000     0.00000000
        2.42399449     4.54498891     0.00000000
       -0.00001559    -0.00007022     5.33033784
PRIMCOORD
6 1
Ti      2.85572897     2.27245923     2.66516903     0.00000000     0.00000000     0.00000000
Ti      0.00000000     0.00000000     0.00000000     0.00000000     0.00000000     0.00000000
O       2.11613744     0.88573767     1.03880440    -0.42743320     0.70122262     0.13837965
O       3.59532053     3.65918091     4.29153373     0.42743320    -0.70122262    -0.13837965
O       0.73958492     1.38669334     3.70397447     0.42697735    -0.70107967     0.13895969
O       1.68439362     3.15822532     1.62636360    -0.42697735     0.70107967    -0.13895969
