# total energy = -19071.08648174 eV

CRYSTAL
PRIMVEC
        5.17600016     0.00000000     0.00000000
        0.00000000     5.50899976     0.00000000
        0.00000000     0.00000000     9.26300011
PRIMCOORD
22 1
Ti      1.93612202     3.47583901     3.35310900    -1.24920487     0.07472528     2.18316898
Ti      3.82226903     2.31629503     6.03326699    -0.59566389    -0.19682728    -0.48418313
Ti      4.24804001     2.56507400     1.61709598     1.10736863    -0.88417571    -0.28637163
Ti      1.27217201     2.44330799     7.75657498    -0.37050613     0.43756438     1.15741928
Ti      1.55177699     0.72486599     1.18661997     0.05746006     0.00121665    -0.75241999
Ti      3.08014498     5.40938998     8.06271900     0.29013393    -1.21184622     0.13437567
Ti      0.58499503     5.30917899     6.37144602     0.64988847    -0.59251429    -0.52044084
Ti      4.47158899     5.06915499     3.53036898     0.94144217     1.03795165     1.48759816
O       3.60706301     3.31938702     4.21241898     1.00746298    -0.65445758     2.03684693
O       0.46916299     1.98296898     0.20204199    -1.49809521     1.17643646     0.63753895
O       5.10476301     3.46107999     6.71201899     1.54985230     1.04910792    -0.68444874
O       2.68393298     1.46607202     9.00454602     1.13161157     0.36645896     1.99565270
O       1.33738400     4.75232201     8.25265802    -1.21333617     0.17347728     1.96535379
O       4.37568699     0.69211902     5.21218001    -0.71363849    -1.52425516    -3.32311813
O       1.14028802     4.96237898     4.55262200    -0.52353645    -1.52186121     0.06570559
O       0.30706499     3.86627001     2.39144402    -1.41789964    -0.29298914    -1.35912780
O       4.77354499     1.10447198     7.29123403     0.25721043     0.14866870     2.12136735
O       2.40987600     2.03624702     2.22176899     1.31235196    -0.33401831    -0.09440066
O       2.77718100     3.46046800     7.15666399     0.33593532    -0.70675127    -0.84720477
O       0.04128800     1.14114201     2.40254600    -1.56639505    -1.16549435     0.64736211
O       2.21053599     0.92691603     6.80235399    -1.06188580     1.43807355    -2.87589951
O       2.75250398     4.73364698     2.52995399     1.56944360     3.18150943    -3.20477432
