# total energy = -19907.80145156 eV

CRYSTAL
PRIMVEC
        6.60732968     0.00000000     0.00000000
        0.70150211     6.99711990     0.00000000
        0.00000000     0.00000000    11.84051126
PRIMCOORD
24 1
Ti      2.81054878     4.14648681     4.39274533    -0.10425930    -1.32598241     0.66049068
Ti      4.49828320     2.85063315     7.44776633     0.10425930     1.32598241    -0.66049068
Ti      5.98418807     2.85063552     1.52746320     0.18691181     0.42182074    -0.53603844
Ti      1.32464394     4.14648477    10.31304866    -0.18691181    -0.42182074     0.53603844
Ti      2.45979787     0.64792692     1.52751070    -0.10425930    -1.32598241    -0.66049068
Ti      4.84903413     6.34919330    10.31300116     0.10425930     1.32598241     0.66049068
Ti      0.97389293     0.64792435     7.44771890    -0.18691181    -0.42182074    -0.53603844
Ti      6.33493900     6.34919582     4.39279283     0.18691181     0.42182074     0.53603844
O       2.33827246     2.46380488     6.04212242     1.59400665     1.62858671    -0.27499013
O       4.97055953     4.53331514     5.79838925    -1.59400665    -1.62858671     0.27499013
O       1.45945560     2.46383318     0.12190471    -1.18453800     0.90835129     0.32045033
O       5.84937646     4.53328691    11.71860669     1.18453800    -0.90835129    -0.32045033
O       4.61980861     1.03475498     0.12186632    -1.59400665    -1.62858671    -0.27499013
O       2.68902338     5.96236504    11.71864508     1.59400665     1.62858671     0.27499013
O       5.49862554     1.03472675     6.04216087     1.18453800    -0.90835129     0.32045033
O       1.81020639     5.96239328     5.79835086    -1.18453800     0.90835129    -0.32045033
O       0.66675289     4.25604513     3.19841756     0.48655651     0.43455028     0.86949625
O       6.64207903     2.74107490     8.64209410    -0.48655651    -0.43455028    -0.86949625
O       3.81853987     2.74100974     2.72187592     0.52339324     0.91893498     0.18136157
O       3.49029212     4.25611022     9.11863561    -0.52339324    -0.91893498    -0.18136157
O       0.31600196     0.75748497     2.72183806     0.48655651     0.43455028    -0.86949625
O       6.99282996     6.23963499     9.11867340    -0.48655651    -0.43455028     0.86949625
O       3.13954120     0.75755013     8.64213188    -0.52339324    -0.91893498     0.18136157
O       4.16929080     6.23956990     3.19837978     0.52339324     0.91893498    -0.18136157
