# total energy = -19516.58186001 eV

CRYSTAL
PRIMVEC
        5.17600016     0.00000000     0.00000000
        0.00000000     5.50899976     0.00000000
        0.00000000     0.00000000     9.26300011
PRIMCOORD
23 1
Ti      1.98135202     3.24825401     3.42820099    -0.43346964    -0.87061519     1.47438937
Ti      3.31644400     2.25057799     5.93343003    -0.37937207     0.36466535    -1.97191884
Ti      4.21811599     2.15193802     1.47825601     0.78202780    -0.52814978     0.30375821
Ti      0.78360102     3.38921899     7.85874800     1.07602867     0.33017373     0.94070735
Ti      1.87762100     0.04665698     1.41592200    -1.00030862     2.25225995    -1.91268986
Ti      3.42639200     5.26335700     7.94937399    -1.50612734     0.07711024     0.27013408
Ti      0.68883500     0.55470402     5.74369299     0.32121061     0.98902173    -2.08727657
Ti      4.60758299     4.81634997     3.40264702     0.43408156     0.69026458     1.66398284
O       1.54992302     2.05743501     4.78623100     0.99759071    -0.53875816     0.76367474
O       3.50516099     3.58261301     4.48932902     1.02719312    -0.11971241     0.95833304
O       4.88822098     3.17886400     0.12282400     0.59400167     0.58624928    -1.23868211
O       3.34858098     1.06395801     0.04667301     0.55698831    -0.83045763    -0.04934129
O       1.70767700     4.88639701     8.80428302     0.31518265    -0.06560249     2.88814028
O       4.25517697     0.81294299     4.81684603     0.36224183    -0.98713943    -0.85664047
O       1.19812000     4.80559699     4.43006000    -0.97469066     0.23936774    -0.22026340
O       0.22359803     3.15519401     2.81813302    -1.32845299    -0.22747587    -1.92274339
O       5.05020700     2.23831901     6.69153099     0.22252829    -0.94732768     1.02280090
O       2.67159098     1.56093102     2.32511900    -1.46416460     1.32140842     0.46948747
O       2.69488198     3.58027003     7.11817698    -0.61336645    -1.44407965     0.35761539
O       5.15882598     0.64003703     2.09391702     1.78673455    -0.88807530    -0.96611654
O       0.00929801     4.78943401     7.06236899    -1.60571083     1.20927614    -0.07509090
O       2.46333698     0.63377099     6.65854198     0.30940101     0.85573878     0.67034366
O       3.04249301     4.45120899     2.20751301     0.52045267    -1.46814159    -0.48260396
