# total energy = -4934.32013831 eV

CRYSTAL
PRIMVEC
        5.37765146     0.00000000     0.00000000
       -0.00000702     2.30470792     0.00000000
       -2.68885658    -1.15243734     5.83595170
PRIMCOORD
6 1
Ti     -0.00022978     1.72860251     1.45898787    -0.03118492    -0.02945354    56.75314455
Ti      2.68901738    -0.57633187     4.37696372     0.03118492     0.02945354   -56.75314455
O       0.00005714     0.57616286     0.95062884     0.02980630     0.02673383   -49.89173388
O       2.68873030     0.57610773     4.88532281    -0.02980630    -0.02673383    49.89173388
O      -0.00002248    -0.57620457     3.86860469    -0.00143519     0.00094205    -1.03783852
O       2.68880986     1.72847510     1.96734696     0.00143519    -0.00094205     1.03783852
