# total energy = -19920.00889624 eV

CRYSTAL
PRIMVEC
        5.58981280     0.00000000     0.00000000
        0.00002200     3.96616740     0.00000000
        0.00000000     0.00000000     8.68449290
PRIMCOORD
24 1
Ti      2.02605141     2.35034711     3.22188492    -1.01911651     3.39646659    -6.09360751
Ti      3.56378348     1.61582029     5.46260807     1.01911651    -3.39646659     6.09360751
Ti      4.82086145     1.61582167     1.12032686    -1.01473149    -3.39703634     6.08969841
Ti      0.76897344     2.35034592     7.56416619     1.01473149     3.39703634    -6.08969841
Ti      2.02604041     0.36726351     1.12036167    -1.01880746     3.39668153     6.08603227
Ti      3.56379448     3.59890404     7.56413137     1.01880746    -3.39668153    -6.08603227
Ti      0.76896244     0.36726203     5.46257321     1.01489373     3.39676149     6.09689801
Ti      4.82087245     3.59890551     3.22191974    -1.01489373    -3.39676149    -6.09689801
O       1.76921884     1.39655498     4.43163027     2.16256364    -3.93102459     5.12751900
O       3.82061606     2.56961247     4.25286273    -2.16256364     3.93102459    -5.12751900
O       1.02573585     1.39657097     0.08941172    -2.16196869    -3.93259682     5.12871328
O       4.56409914     2.56959648     8.59508098     2.16196869     3.93259682    -5.12871328
O       3.82060511     0.58652872     0.08938353    -2.16181057     3.93157172     5.12751386
O       1.76922979     3.37963868     8.59510918     2.16181057    -3.93157172    -5.12751386
O       4.56408814     0.58651278     4.43165841     2.16148326     3.93284467     5.12867394
O       1.02574671     3.37965472     4.25283453    -2.16148326    -3.93284467    -5.12867394
O       0.20310432     2.41244784     2.34589821     3.95651708    -1.13776988     2.21251428
O       5.38673058     1.55371961     6.33859479    -3.95651708     1.13776988    -2.21251428
O       2.99801697     1.55368262     1.99637591     3.95786126     1.13829078    -2.21231039
O       2.59181792     2.41248483     6.68811694    -3.95786126    -1.13829078     2.21231039
O       0.20309332     0.42936409     1.99634815     3.95654151    -1.13766960    -2.21233353
O       5.38674158     3.53680331     6.68814466    -3.95654151     1.13766960     2.21233353
O       2.59180697     0.42940108     6.33862246    -3.95803301    -1.13798122    -2.21253588
O       2.99802792     3.53676637     2.34587049     3.95803301     1.13798122     2.21253588
