# total energy = -4985.33684605 eV

CRYSTAL
PRIMVEC
        3.88059121     0.00000000     0.00000000
        0.00000000     4.05353642     0.00000000
        0.00000000    -0.00007084     5.27804174
PRIMCOORD
6 1
Ti      1.94029543     2.02673273     2.63902081     0.00000000     0.00000000     0.00000000
Ti      0.00000000     0.00000000     0.00000000     0.00000000     0.00000000     0.00000000
O       1.94029543     0.78996073     1.02861257    -0.00000000     0.50465426     0.97028019
O       1.94029543     3.26350473     4.24942900    -0.00000000    -0.50465426    -0.97028019
O       0.00000000     1.23674366     3.66763454    -0.00000000    -0.50434161     0.97054578
O       0.00000000     2.81672180     1.61040708    -0.00000000     0.50434161    -0.97054578
