# total energy = -19873.74995458 eV

CRYSTAL
PRIMVEC
        9.71876906     0.00000000     0.00000000
        0.00003060     3.92347602     0.00000000
        0.00000000     0.00000000    15.04223136
PRIMCOORD
24 1
Ti      3.52260461     2.32504820     5.58056057     0.29626370    -0.19853423     2.31954909
Ti      6.19619533     1.59842768     9.46167093    -0.29626370     0.19853423    -2.31954909
Ti      8.38182326     1.59842901     1.94049508     0.29655038     0.19840079    -2.32089378
Ti      1.33697667     2.32504707    13.10173656    -0.29655038    -0.19840079     2.32089378
Ti      3.52258944     0.36331026     1.94055538     0.29626370    -0.19853423    -2.31954909
Ti      6.19621049     3.56016575    13.10167625    -0.29626370     0.19853423     2.31954909
Ti      1.33696151     0.36330886     9.46161062    -0.29655038    -0.19840079    -2.32089378
Ti      8.38183843     3.56016716     5.58062088     0.29655038     0.19840079     2.32089378
O       3.07606267     1.38152258     7.67593551     0.58806782     0.82339069    -2.38844439
O       6.64273733     2.54195330     7.36629599    -0.58806782    -0.82339069     2.38844439
O       1.78340044     1.38153838     0.15486821    -0.58823957     0.82342643    -2.38860509
O       7.93539963     2.54193750    14.88736288     0.58823957    -0.82342643     2.38860509
O       6.64272216     0.58021530     0.15481941    -0.58806782    -0.82339069    -2.38844439
O       3.07607777     3.34326058    14.88741167     0.58806782     0.82339069     2.38844439
O       7.93538446     0.58019949     7.67598437     0.58823957    -0.82342643    -2.38860509
O       1.78341540     3.34327646     7.36624713    -0.58823957     0.82342643     2.38860509
O       0.35312400     2.38648051     4.06328194    -1.88840270     0.57516705    -0.02575295
O       9.36567594     1.53699537    10.97894956     1.88840270    -0.57516705     0.02575295
O       5.21252132     1.53695890     3.45788157    -1.89102651    -0.57509865     0.02528038
O       4.50627868     2.38651705    11.58434966     1.89102651     0.57509865    -0.02528038
O       0.35310883     0.42474250     3.45783353    -1.88840270     0.57516705     0.02575295
O       9.36569110     3.49873338    11.58439769     1.88840270    -0.57516705    -0.02575295
O       4.50626351     0.42477897    10.97899746     1.89102651     0.57509865     0.02528038
O       5.21253649     3.49869691     4.06323397    -1.89102651    -0.57509865    -0.02528038
