# total energy = -4988.00204352 eV

CRYSTAL
PRIMVEC
        3.58361570     0.00000000     0.00000000
        0.88211282     3.47335262     0.00000000
       -2.23289689    -1.73670169     4.61020949
PRIMCOORD
6 1
Ti      0.66146824     2.60514748     1.15255230     0.00089372    -0.00092251    -0.00122076
Ti      1.57136355    -0.86849642     3.45765689    -0.00089372     0.00092251     0.00122076
O       0.22056578     0.86833321     0.75096540     0.00034016     0.00117911     0.28135464
O       2.01226585     0.86831777     3.85924379    -0.00034016    -0.00117911    -0.28135464
O      -0.22054017    -0.86831329     3.05607000     0.00121947     0.00038284     0.28006446
O       2.45337180     2.60496422     1.55413920    -0.00121947    -0.00038284    -0.28006446
