# total energy = -19955.78234928 eV

CRYSTAL
PRIMVEC
        5.34643541     0.00000000     0.00000000
        1.40069794     5.51513322     0.00000000
        0.00000000     0.00000000     9.64576012
PRIMCOORD
24 1
Ti      2.76787805     3.26826300     3.57850839     0.94892639    -1.95469990     0.95179780
Ti      3.97925545     2.24687058     6.06725228    -0.94892639     1.95469990    -0.95179780
Ti      5.18160142     2.24687249     1.24433343    -1.85287929    -0.47706220     0.68280529
Ti      1.56553211     3.26826131     8.40142734     1.85287929     0.47706220    -0.68280529
Ti      2.06752919     0.51069643     1.24437211     0.94892639    -1.95469990    -0.95179780
Ti      4.67960434     5.00443736     8.40138867    -0.94892639     1.95469990     0.95179780
Ti      0.86518314     0.51069432     6.06721360     1.85287929     0.47706220     0.68280529
Ti      5.88195038     5.00443943     3.57854706    -1.85287929    -0.47706220    -0.68280529
O       2.18539013     1.94197228     4.92215779     0.76497547     1.22774438    -0.72043751
O       4.56174332     3.57316131     4.72360288    -0.76497547    -1.22774438     0.72043751
O       1.47428365     1.94199454     0.09930853     0.08038891    -0.40737216     0.60554670
O       5.27284993     3.57313914     9.54645186    -0.08038891     0.40737216    -0.60554670
O       3.86139444     0.81559458     0.09927724    -0.76497547    -1.22774438    -0.72043751
O       2.88573906     4.69953900     9.54648316     0.76497547     1.22774438     0.72043751
O       4.57250104     0.81557236     4.92218908    -0.08038891     0.40737216     0.60554670
O       2.17463242     4.69956128     4.72357158     0.08038891    -0.40737216    -0.60554670
O       1.04623225     3.35461679     2.60556060     0.06520937     0.50925216     0.38238206
O       5.70090120     2.16051680     7.04020006    -0.06520937    -0.50925216    -0.38238206
O       3.41617776     2.16046537     2.21735043     1.03997408     0.26771699    -0.37816699
O       3.33095575     3.35466826     7.42841007    -1.03997408    -0.26771699     0.37816699
O       0.34588338     0.59705006     2.21731962     0.06520937     0.50925216    -0.38238206
O       6.40125013     4.91808358     7.42844088    -0.06520937    -0.50925216     0.38238206
O       2.63060687     0.59710148     7.04023082    -1.03997408    -0.26771699    -0.37816699
O       4.11652664     4.91803210     2.60552979     1.03997408     0.26771699     0.37816699
