# total energy = -19960.26262823 eV

CRYSTAL
PRIMVEC
        7.60600008     0.00000000     0.00000000
        0.00000000     7.60600008     0.00000000
       -1.89786986    -1.89786986     4.85670466
PRIMCOORD
24 1
Ti      3.75566799     6.63932602     1.20392698     1.03669592    -0.80173634     0.05947272
Ti      3.72028202     2.87858401     1.14447201    -0.69796066     0.44592690     1.59468465
Ti      0.06201402     6.71747899     1.22360602    -0.56738174    -0.75936866     0.28979403
Ti     -0.10032899     2.87398498     1.21166900     1.03637299     0.57452427    -0.36834126
Ti      5.65452721     2.93769422     3.63785880     1.55175852    -0.64895002     0.75709220
Ti      5.68651021    -0.97796475     3.59123680     1.94764685     0.55273339    -0.20276601
Ti      1.91494022     2.76059225     3.68049080    -1.06378636     1.70454870    -1.41558848
Ti      2.01178823    -1.05483976     3.71282882    -1.34560148    -1.63167178    -0.80963529
O       3.60716001     4.83013801     0.71705502     0.72619627    -2.94840387     0.32455381
O       3.70511701     0.80407102     0.90070000     0.17691253     3.40678340    -0.54001131
O      -0.02719902     4.76406499     0.72451001    -0.24872424     1.24695413     0.40298715
O       0.06982298     0.95573502     0.71201799    -0.40267656     1.18220833     0.41930517
O      -1.53616578     4.86444324     4.05263883    -0.71316746    -1.42467733    -0.05145962
O       5.96038123     1.09878221     4.02778184    -1.37051034    -1.82766113    -0.05031754
O       1.62950524     4.70942024     4.06606379     1.01274274     0.84745983     0.07054595
O       1.85546922     0.89593524     4.10486783     0.54062735    -0.58974444     0.11059630
O       3.81805423     2.94137623     3.29602580    -1.08709316    -0.33330637    -0.43190101
O       3.88524525     6.24157825     3.17827381    -0.44397774     0.87022644     1.24731023
O       0.00534522     2.76702820     3.10845379    -0.22377528     0.03920085     0.42924326
O       0.03383924    -1.00699880     3.08539981     0.51068041     0.71797337     0.95575833
O       5.74184902     6.76548198     1.58138599    -0.36083132    -0.21527700    -0.13425097
O       5.64496000     3.04203099     1.62225297    -0.95726757    -0.45657821    -0.82290835
O       2.00889601     6.52563499     1.82094300    -1.29675462     0.74351677    -0.85598998
O       1.82687698     3.03463399     1.73231798     2.23987494    -0.69468096    -0.97817425
