# total energy = -4985.81153130 eV

CRYSTAL
PRIMVEC
        3.01043935     0.00000000     0.00000000
        1.81419512     4.35406798     0.00000000
       -0.00001157    -0.00006267     4.81802893
PRIMCOORD
6 1
Ti      2.41231137     2.17700251     2.40901441     0.00000000     0.00000000     0.00000000
Ti      0.00000000     0.00000000     0.00000000     0.00000000     0.00000000     0.00000000
O       1.85877725     0.84853140     0.93896285    -3.23022105     1.64088585     1.76399879
O       2.96584548     3.50547362     3.87906592     3.23022105    -1.64088585    -1.76399879
O       0.55352916     1.32844581     3.34797832     3.23038972    -1.64096632     1.76377151
O       1.26065437     3.02555939     1.47005050    -3.23038972     1.64096632    -1.76377151
