# total energy = -19074.18389986 eV

CRYSTAL
PRIMVEC
        5.17600016     0.00000000     0.00000000
        0.00000000     5.50899976     0.00000000
        0.00000000     0.00000000     9.26300011
PRIMCOORD
22 1
Ti      2.01252098     3.46174099     3.30036601     0.46096117     0.19416747    -1.68690809
Ti      3.56871602     2.24347701     5.92699798     0.95078145     0.48088492    -1.17541778
Ti      4.51446102     2.26193302     1.24641002    -0.09642977     0.54644396    -0.99648051
Ti      0.57985502     3.16219999     8.03460201     0.35559835     1.25226731     0.92636650
Ti      1.89811302     0.40447801     1.27515599    -0.68522419     0.54121844    -1.42225381
Ti      3.00758901     5.14894899     7.91781402     1.45091313    -0.27218685     1.31733965
Ti      0.58534402     0.02858102     6.18275998     0.22349168     1.22557925    -1.30280879
Ti      4.62072701     5.08568601     3.38815000    -0.46115015    -0.65873513     0.15597449
O       3.57045802     3.48654601     4.30848899     0.17944224    -0.59085361     2.08537935
O       0.95382601     2.01804898     0.19136901    -0.42384908    -1.25049660     0.45755317
O       4.29346099     3.62812400     8.95474198    -1.96534993     0.31323170     0.67513440
O       3.33808401     0.77638198     0.22367100     1.50771396     0.93572557    -1.72782799
O       1.60877700     4.51301298     9.10899598     0.50382611     1.66626573     0.72380078
O       4.46434799     0.82299397     4.85932102    -0.44595518     0.36785404     0.42534804
O       1.01728802     4.72838802     4.39830497     0.34692114    -0.56648777     0.92141404
O       0.31434198     3.61616899     2.33987601    -0.59802776    -0.87272041    -0.27186649
O       4.90348001     1.73903001     7.15951900     0.03626877    -1.68374718    -1.42965370
O       2.69631298     1.92860702     2.29261202     0.53218873     0.73491180     0.58134875
O       1.82380003     4.13210098     6.80766302    -0.25362245    -1.81789119    -1.08398495
O       0.25647798     0.79642002     2.20981001    -1.03931922     0.14612896     0.38677942
O       2.34066300     1.00090898     6.50377499    -0.84042169     0.13261215     0.91973536
O       2.94684502     4.73988302     2.23494000     0.26124243    -0.82417257     1.52102817
