# total energy = -19914.38546858 eV

CRYSTAL
PRIMVEC
        6.46788283     0.00000000     0.00000000
        1.69450288     6.67196604     0.00000000
        0.00000000     0.00000000    11.66901712
PRIMCOORD
24 1
Ti      3.34845735     3.95380109     4.32912235    -0.24685196    -1.84535856     0.68982132
Ti      4.81392855     2.71816539     7.33989544     0.24685196     1.84535856    -0.68982132
Ti      6.26847392     2.71816769     1.50533996     0.13765357    -0.43159376    -0.25516923
Ti      1.89391201     3.95379905    10.16367796    -0.13765357     0.43159376     0.25516923
Ti      2.50120605     0.61781812     1.50538674    -0.24685196    -1.84535856    -0.68982132
Ti      5.66117988     6.05414862    10.16363117     0.24685196     1.84535856     0.68982132
Ti      1.04666058     0.61781556     7.33984865    -0.13765357     0.43159376    -0.25516923
Ti      7.11572534     6.05415111     4.32916913     0.13765357    -0.43159376     0.25516923
O       2.64378903     2.34931281     5.95461040     1.79834566     1.98877217    -0.59254565
O       5.51859680     4.32265368     5.71440738    -1.79834566    -1.98877217     0.59254565
O       1.78352363     2.34933974     0.12013910    -0.77669970     0.14206893     0.94081739
O       6.37886235     4.32262687    11.54887835     0.77669970    -0.14206893    -0.94081739
O       4.67134547     0.98667051     0.12010124    -1.79834566    -1.98877217    -0.59254565
O       3.49104042     5.68529597    11.54891621     1.79834566     1.98877217     0.59254565
O       5.53161101     0.98664363     5.95464826     0.77669970    -0.14206893     0.94081739
O       2.63077483     5.68532292     5.71436952    -0.77669970     0.14206893    -0.94081739
O       1.26568585     4.05826811     3.15209283     0.51835902     1.60566918     1.72050343
O       6.89669998     2.61369838     8.51692496    -0.51835902    -1.60566918    -1.72050343
O       4.13274187     2.61363616     2.68245320     0.62685652     1.65556839     0.86401774
O       4.02964403     4.05833039     8.98656438    -0.62685652    -1.65556839    -0.86401774
O       0.41843452     0.72228494     2.68241593     0.51835902     1.60566918    -1.72050343
O       7.74395138     5.94968160     8.98660165    -0.51835902    -1.60566918     1.72050343
O       3.18239270     0.72234716     8.51696216    -0.62685652    -1.65556839     0.86401774
O       4.97999320     5.94961932     3.15205555     0.62685652     1.65556839    -0.86401774
