# total energy = -4987.20360279 eV

CRYSTAL
PRIMVEC
        3.16249437     0.00000000     0.00000000
        1.68276914     4.66066996     0.00000000
       -0.00001093    -0.00006566     5.03518056
PRIMCOORD
6 1
Ti      2.42262628     2.33030210     2.51759028     0.00000000     0.00000000     0.00000000
Ti      0.00000000     0.00000000     0.00000000     0.00000000     0.00000000     0.00000000
O       1.90919194     0.90828313     0.98128254    -0.45801906     0.43745151     0.13401315
O       2.93606062     3.75232107     4.05389807     0.45801906    -0.43745151    -0.13401315
O       0.51342974     1.42199243     3.49887383     0.45782083    -0.43744483     0.13408334
O       1.16932856     3.23861174     1.53630679    -0.45782083     0.43744483    -0.13408334
