# total energy = -19072.36168572 eV

CRYSTAL
PRIMVEC
        7.60600008     0.00000000     0.00000000
        0.00000000     7.60600008     0.00000000
       -1.89786986    -1.89786986     4.85670466
PRIMCOORD
22 1
Ti      3.57782300     6.83209301     0.87402402     1.01166133     0.62700565     0.66091980
Ti      4.15919100     3.10199402     1.23013798    -1.28890658    -0.81367295    -0.28874296
Ti     -0.19285299     6.48338198     1.15619498    -1.08435082    -0.21446608    -1.45868481
Ti      0.15706600     2.57211503     1.21235201     0.38115924     0.83548311     0.76335953
Ti      5.92713324     2.67104021     3.77418581     0.77665368     0.64519004    -1.59273858
Ti      5.39483025    -1.19220179     3.68346880     2.08635792    -0.15262177    -0.94845820
Ti      2.10419422     2.82415823     3.52583981     0.40749172    -0.44015348    -1.17223399
Ti      1.18366325    -0.53266278     3.78461283    -1.00660012    -0.58567438     0.86161890
O       3.92994702     4.91251000     0.46431599    -0.50609202     0.86471785     3.25212917
O       3.85809702     1.29897499     0.78446299    -0.64010954    -2.06073532     0.83524168
O       0.09432299     4.56021199     0.68651599    -0.03728692    -0.32046962     2.67610184
O       6.98634300     0.92770799     0.67255899    -0.50952702    -0.48273637     0.99481135
O      -1.52696678     4.66296223     4.10926683    -0.77564555     0.52137132     0.12366497
O      -0.92574776     0.12878624     4.17164582     0.93886644     1.04656150    -0.10353091
O       1.56874321     5.06727122     3.93406079    -0.00654629     0.44478481     0.16482886
O       2.26525525     0.95643523     3.98757982     0.25910662     0.73528024    -0.37131320
O       4.10838125     2.69386125     3.58146983    -1.14086652     0.31026593    -1.64032020
O       0.25883324     2.48009825     3.18132383    -0.58189537    -0.31661913    -0.41949338
O       5.60052202     6.67141898     1.69654798    -1.55855086    -0.61215341     0.91742240
O       5.88330101     3.13788202     1.92911498     0.19264460    -0.06915730    -2.41253744
O       1.39793902    -0.73897402     1.90426698     2.19609752     0.49390062    -0.26460827
O       2.11400998     3.21520800     1.69333598     0.88633904    -0.45610230    -0.57743605
