# total energy = -19515.71625924 eV

CRYSTAL
PRIMVEC
        5.17600016     0.00000000     0.00000000
        0.00000000     5.50899976     0.00000000
        0.00000000     0.00000000     9.26300011
PRIMCOORD
23 1
Ti      1.98358600     3.22625500     3.40022498    -0.85229222    -1.15672200     3.30020728
Ti      3.45347402     2.28918300     5.93463798    -0.98530495    -0.12035570    -3.96649554
Ti      4.16242199     2.18283398     1.53169498     1.15156334    -0.33899674    -1.39544696
Ti      0.71847401     3.46076699     7.72148201     0.17903369     0.67414041     2.20072525
Ti      1.94332497     0.00405598     1.47494601     0.12475434     1.72439402    -2.22146327
Ti      3.22810299     5.24457698     7.91751303    -1.46175856    -0.13035138     2.07886186
Ti      0.84003502     0.53142202     5.87002300    -0.71659063     0.65353121    -3.41947746
Ti      4.60029500     4.91145498     3.25596999    -0.01724131    -0.37161093     3.05277425
O       1.80287900     1.96488699     4.73908697    -0.60553821    -0.32016391     1.41149374
O       3.79413701     3.49849399     4.45116602    -0.99595035     0.50348081     0.00408163
O       5.08698302     2.73421699     0.03196601    -0.16563875     0.98235178    -0.83658560
O       3.31844598     0.96668899     0.27416102    -0.49477505    -1.96445441    -0.36430334
O       1.53332601     4.72826302     9.06678198     0.90012221     0.08552675     0.02928076
O       4.30129001     0.77976501     5.04686599     0.01290540    -0.96641042    -2.41083923
O       1.17634600     4.82605498     4.37484602    -0.29743072    -0.02876397    -0.16594703
O       0.25140402     3.43051101     2.50568502     1.02875763    -0.39896902    -0.44395178
O       5.03991397     2.10992198     6.76682498     1.66259085     1.11383110     1.20942964
O       2.48287600     1.71273599     2.38620400     0.47078793    -1.41610373    -0.38211852
O       2.56780302     3.56145799     6.96132900    -1.07458782     1.45744451     1.73339803
O       0.17478100     0.62375599     2.01385499    -0.49325373     0.19870033     0.05280379
O       4.87960301     5.10894800     7.07275399     0.63585385    -2.30922739     1.63692917
O       2.29874402     0.98585002     7.08615001     0.30406006     0.32075758    -0.62565376
O       2.96949502     4.01799899     2.00436800     1.68993300     1.80797085    -0.47770292
