# total energy = -19516.16603232 eV

CRYSTAL
PRIMVEC
        5.17600016     0.00000000     0.00000000
        0.00000000     5.50899976     0.00000000
        0.00000000     0.00000000     9.26300011
PRIMCOORD
23 1
Ti      1.84906501     3.22294298     3.23818001     0.54932154    -0.63464517     3.65650086
Ti      3.36453197     2.19227001     5.86923702    -0.29018947     0.46274603    -2.67971398
Ti      4.46961002     2.14553403     1.44525398    -0.18150195    -2.03888531    -1.07059670
Ti      0.79597699     3.36787500     7.86777603     0.95179678     0.39948016     2.50422533
Ti      1.82564601     0.56233698     1.35882002    -0.37121653    -0.80160084    -2.60198899
Ti      3.38330501     5.15348002     7.87270298    -2.15778036     0.79554409     2.27554850
Ti      0.76015100     0.64953602     5.80344700    -0.44273462    -0.78208462    -2.92190710
Ti      4.39131798     4.84026900     3.41185899     0.24060855     0.66857269     3.28904946
O       1.80324398     1.88894899     4.74360699    -1.51408645    -0.32753578     0.23452943
O       3.35227999     3.57358498     4.56074001     0.61471474     0.32937566     0.26327746
O       0.70241798     2.32813701     0.23288202     0.14762483    -0.21874851    -0.22815541
O       3.46461903     0.93447802     0.06280202     0.64710500     0.18300682     0.19837945
O       1.73409199     4.83467898     8.97009499    -0.13514006    -0.13625798     1.06148882
O       4.32649901     0.74509400     4.81699499    -1.35689583     1.56673726     0.11434343
O       0.78185298     4.75570298     4.45496700     1.76122637    -1.14812963     0.55765937
O       0.04704201     3.22414099     2.79837301    -0.51123037    -0.05649950    -1.21266923
O       5.08979401     2.16494001     6.77955000    -0.64048877    -0.54457605    -0.08479913
O       2.77305098     1.74744398     2.40608000     0.04682572     1.36987245    -0.57046475
O       2.42383898     3.28887201     7.18592098     2.13921982     0.07150472    -0.45637689
O       0.03359498     0.59323299     2.30493602     1.05324586     0.50898143    -2.04260672
O       5.10325400     4.86614598     7.09982802    -0.85075753    -0.09023547     0.63639686
O       2.52028100     0.53659901     6.57343599     0.21683869    -0.18103530     0.97194935
O       2.61575902     4.71876599     2.50753699     0.08349326     0.60441258    -1.89406992
