# total energy = -19959.46870078 eV

CRYSTAL
PRIMVEC
        7.60600008     0.00000000     0.00000000
        0.00000000     7.60600008     0.00000000
       -1.89786986    -1.89786986     4.85670466
PRIMCOORD
24 1
Ti      3.85769998     6.52669699     1.23733299     0.05083356     1.04149746     1.92513298
Ti      3.67555802     2.76079899     1.13491698     1.75394552    -0.05099091     0.72253039
Ti      0.09453699     6.75281401     1.30303400    -0.90595347    -0.26125529    -1.11198993
Ti      0.01172498     2.96634001     1.26106299    -2.18217062     0.25007176    -1.87219060
Ti      5.71028725     2.95329024     3.59279380     0.82695630    -0.97232473     1.03951436
Ti      5.69849221    -0.94225179     3.62806082    -0.71949726     1.53037079     1.06944741
Ti      1.95988521     2.75364822     3.61802582    -0.05715976     0.05381578    -0.23060207
Ti      1.83547024    -1.15008976     3.70990184     0.51029500     1.26291760    -0.88553299
O       3.78052001     4.73715902     0.83229501     0.32819758    -0.82230903    -1.72708828
O       3.71320401     0.86560603     0.87676701     0.09428624    -0.14514500    -0.73148143
O      -0.01920300     4.82222998     0.77273801     0.09425976     0.11494095    -0.10778788
O      -0.14122301     0.99344001     0.75843700     0.83932485     0.93445699     1.05850145
O       5.63304521     4.87168223     4.08954783     0.18041772    -1.13119145     0.45742796
O       5.70745922     1.06963323     3.75692881     0.58671310    -0.88749012     1.98036826
O       1.81927625     4.64831223     3.91743182     0.83346582    -0.89907757     1.33806403
O       1.92802720     0.76555321     4.00713879    -0.14286289     3.13626931     0.61594347
O       3.99706723     2.69361121     3.06275780    -5.83144154     0.33883321     0.49389573
O       3.76723724    -0.92484477     3.14622980     0.01044794    -0.55440332     0.29398647
O      -0.04698575     3.06629625     3.10474981     2.43292012    -0.95536495     1.45546142
O      -0.00188477    -0.88060079     3.32304781     1.08358206    -0.31356620    -0.13402369
O       5.78837302     6.58578598     1.79383600    -1.20120622    -0.15029055    -2.68659246
O       5.72202102     2.97989600     1.68911902    -0.02458490     0.21719916    -2.53260466
O       1.90890400     6.60075402     1.71937901    -0.30690164    -0.07106300    -0.80278201
O       1.86568001     3.19242099     1.64381203     1.74613245    -1.66590063     0.37240232
