# total energy = -4989.67037367 eV

CRYSTAL
PRIMVEC
        3.27981125     0.00000000     0.00000000
        0.00000000     4.20461392     0.00000000
        0.00000000    -0.00006174     4.71898316
PRIMCOORD
6 1
Ti      1.63990562     2.10227604     2.35949168     0.00000000     0.00000000     0.00000000
Ti      0.00000000     0.00000000     0.00000000     0.00000000     0.00000000     0.00000000
O       1.63990562     0.81940528     0.91966037    -0.00000000     0.05278811    -0.05476683
O       1.63990562     3.38514679     3.79932300    -0.00000000    -0.05278811     0.05476683
O       0.00000000     1.28284578     3.27915290     0.00000000    -0.05399679    -0.05429581
O       0.00000000     2.92170630     1.43983047     0.00000000     0.05399679     0.05429581
