# total energy = -39028.09208368 eV

CRYSTAL
PRIMVEC
        5.93200024     0.00000000     0.00000000
        0.00000000     9.29399984     0.00000000
        0.00000000     0.00000000     9.29399984
PRIMCOORD
46 1
Ti      4.45343900     7.19399898     6.74670201    -0.05027177    -0.49778221     1.97793034
Ti      4.49824100     6.82465998     2.41253300    -0.76695933    -0.48550159    -0.96865345
Ti      4.31407599     2.22663298     7.12025500     1.76280915     1.48621851    -0.32880668
Ti      4.57988500     2.85338797     1.86596799    -0.17997934     0.16437480     0.79059420
Ti      1.66575902     6.78842599     7.18188198    -2.31767398     0.48861443     1.22542807
Ti      1.46520502     6.95370699     2.21810698     0.65376698     0.96411185    -0.38299913
Ti      1.36762902     2.42266500     6.57355802     0.01531812     0.16786482     1.71585281
Ti      1.71290300     1.94569198     2.97467498    -5.88757440     0.62396326    -0.13192052
Ti      2.90235100     4.77996401     4.73866998     0.13389462     0.86713469     0.43758932
Ti      2.85426397     4.68622698     9.02024602     0.01627123    -2.61425316    -0.43376686
Ti      3.04180402     8.98214902     4.30416900    -2.87778413     0.88886026     1.34778409
Ti      2.88589502     0.19943098     0.10097998    -0.66806567    -1.78029240     0.91708224
Ti      5.92809798     4.66238199     4.67857402    -0.46049709     0.35000492     0.15286268
Ti      5.88703198     4.82138600     9.18712101     0.62698534    -0.32314331    -2.58202077
Ti      5.81540000     8.95398102     4.85340498     2.41628328     1.05315536    -1.36991975
Ti      5.88012902     0.11317498     9.19960599     1.42051445    -0.14820230     0.00253922
O       4.46639199     5.81329102     5.58365699     0.98222888     0.00824964    -0.19832520
O       4.42051401     4.73762798     1.09816599    -0.73956807     0.89560375     1.39206647
O       4.32585299     0.27850398     5.63310199    -1.25037910     2.17583054     1.23158355
O       4.56675199     1.37716802     0.72115201    -0.43951636    -0.35194636     0.15214380
O       1.48413300     5.46818702     5.83155700    -1.47370931    -0.51979446    -0.04034782
O       1.56554899     5.46377500     0.79211299    -0.36729508     0.70819494     1.19619591
O       0.88925998     1.49766899     4.68190599     0.99374382    -2.29678325     0.62210255
O       1.24056700     0.65043102     1.12656402     2.57865828     2.21108372     1.44972374
O       4.51234198     8.55999400     8.46633402    -2.17205102    -0.67042902    -0.98944700
O       4.44519902     8.23162502     3.65310101     2.66406598    -0.49557055     0.38035243
O       4.49289398     3.66614703     8.30511202    -0.14016014    -0.24651206     1.26360126
O       4.31767000     4.12976202     3.85610203     2.56541580    -2.07580508    -2.37532045
O       1.51997899     8.20975100     8.68091402     0.35203249     1.00359887    -0.99745727
O       1.48782999     8.11559899     3.84366499    -0.86181482     2.01737648    -0.26415241
O       1.29840999     3.60574599     8.31151602     1.23576494     1.89804125     0.69315141
O       1.55390301     3.83517598     3.86192001     0.23119317    -0.49306372     1.23941694
O       3.24156198     6.07318500     7.98140001     0.15709523     0.98225819    -0.49939172
O       2.76948200     6.10883101     3.24299398     1.09066442    -0.09789993    -0.61119104
O       2.89181900     1.52250603     7.96771501    -1.49059761    -0.91660042    -0.57222365
O       3.33733099     1.66453598     2.99375102     4.89333075    -0.81927410     0.37662124
O       5.76781601     6.26047099     8.04029897     0.50367673    -1.26765409     0.40065258
O       0.13859300     6.09821598     3.31061802    -0.79828258    -0.97123329    -0.22114246
O       0.19956798     1.38471600     7.65538402    -0.46644739    -1.39821270     0.03570209
O       2.71928901     7.61691997     6.01023402     1.50841896     2.33519091    -0.73202265
O       3.12774003     8.08355302     1.54236901    -0.84003422    -1.03377489     0.02719740
O       3.38020102     3.54480298     6.07921100    -2.73058919    -3.15498258     0.80299387
O       0.21679000     7.81689902     6.16989701     0.21451853     0.39732223     0.20281126
O       5.70383298     7.91017000     1.61109702     1.09059037    -0.79782980    -1.42875484
O       5.76407198     3.20197100     6.24170498     0.58418185     1.97179337    -2.76713898
O       0.36411602     2.98102002     2.18666602    -1.71217254    -0.20230578    -2.13897736
