# total energy = -19073.68972254 eV

CRYSTAL
PRIMVEC
        5.17600016     0.00000000     0.00000000
        0.00000000     5.50899976     0.00000000
        0.00000000     0.00000000     9.26300011
PRIMCOORD
22 1
Ti      1.77457998     3.47085802     3.33717700     1.89220562    -0.25124110    -1.48449998
Ti      3.43895001     2.17445298     5.90266398    -0.51774504     0.42631220    -0.33157036
Ti      4.58638700     2.37544302     1.33487200    -2.00837504    -2.32434291    -0.92903530
Ti      0.73012400     3.05881098     8.07742600     0.91220049     0.99694613    -0.73601943
Ti      1.89446202     0.49121000     1.22792501     0.60788255     0.75286865    -0.83028305
Ti      3.29444202     4.96102100     8.10812600     0.79342885     0.15038002     0.82668531
Ti      0.94130801     0.22068797     6.03372002     0.91684441     0.17163688     0.72035781
Ti      4.25067198     5.09011501     3.53725601    -0.83248109     0.97943280    -0.27663923
O       3.42100598     3.50055699     4.40030198     0.27579977    -0.39639689     1.18831316
O       0.99295698     1.78771501     0.04115798    -0.65632472     0.16407398     0.47543392
O       4.34084199     3.60816597     9.07882198     0.10711888    -0.18559772    -1.28225847
O       3.49222901     0.79125302     0.14727500     0.51835490    -0.20939689    -0.01273982
O       1.73117898     4.69023100     8.88244398    -2.55738265    -0.53897876     2.33715987
O       3.24316099     0.84357998     4.56270997     1.38474808    -0.25636788     0.15640386
O       0.84647701     4.90580998     4.31980899    -0.20534097    -0.46666620     1.45555166
O       0.26431102     3.71099501     2.08512299     0.71743575     0.46920208     2.14857272
O       0.11124401     1.89186899     6.51700098    -1.07750525    -0.20303366    -0.36914062
O       2.84460400     2.20370902     2.10308300    -0.73699774    -0.63759834     0.16324146
O       2.28836701     3.51742298     6.97239801     0.51338984    -0.44248445    -1.50048556
O       0.15473201     0.79967202     2.26512602     0.35529085     0.60548756     0.08694831
O       2.42740098     0.83995299     7.05142000     0.47574836     0.36403620    -1.78602210
O       2.82385898     4.69939201     2.30802399    -0.87829508     0.83172827    -0.01997491
