# total energy = -39034.48285870 eV

CRYSTAL
PRIMVEC
        5.93200024     0.00000000     0.00000000
        0.00000000     9.29399984     0.00000000
        0.00000000     0.00000000     9.29399984
PRIMCOORD
46 1
Ti      4.38709901     7.13921802     6.88935401     0.41948232     0.75282623    -0.10968459
Ti      4.47591099     6.90710299     2.33549998     0.32738049    -1.27398415     1.35193642
Ti      4.42822698     2.09570701     7.13954701    -0.67125538     0.85367907    -0.57162586
Ti      4.48084202     2.56825002     2.08309100     0.06646587    -1.09891767     1.20391924
Ti      1.40243798     6.81097598     7.15505000     0.44924337     0.70929281    -1.01033053
Ti      1.51635699     7.08743501     2.18227501    -0.54893561    -1.86751196     1.56649326
Ti      1.42168802     2.49900199     6.74612198     0.88757908     0.15615678     0.20267114
Ti      1.56618500     2.05317497     2.65184002     0.18453637     1.49165562    -0.12533387
Ti      2.98984199     4.69842902     4.65116798    -0.67842644     0.01598970    -0.04738108
Ti      3.04416600     4.85052398     9.04588101    -0.71521586    -1.78735753     0.48497786
Ti      2.90928999     9.20966999     4.81217000     0.14381471     0.22065370    -0.06078450
Ti      2.93854302     0.05511598     0.04292400     0.83135443    -0.30598967    -1.17990950
Ti      5.88914302     4.49906699     4.64743300     0.74665146     1.35258331    -1.32794262
Ti      0.06123602     4.72596798     9.22599802     0.29792849    -1.14547265     0.22695367
Ti      5.88370398     9.07365101     4.76960299     0.07425503     0.01732256     0.40820546
Ti      0.06174599     0.07464199     0.07158599    -0.60984456    -0.48340460    -0.81183795
O       4.51275199     5.56296901     5.49216002    -0.01902797     0.55277324     0.47838786
O       4.40512898     5.58710902     0.72528600     0.45344609     0.00315757     1.83084107
O       4.48210702     0.77014600     5.78005499    -0.80231741    -0.10631413    -0.57322792
O       4.40882100     0.78654398     1.07363000     0.91646183     1.43136529    -0.18693341
O       1.52825898     5.49469298     5.55471898    -0.84337151     0.47332947     0.75158258
O       1.49599298     5.71936100     0.63649302     0.11854590    -0.64283388     1.05954892
O       1.43134598     0.89284098     5.39522300    -0.22185183     1.62401400     0.46369786
O       1.56239800     0.87080498     1.10364900    -1.07537587     0.13275330     0.19359900
O       4.37826598     8.38327801     8.40159898     0.57492202     0.78493083    -0.18720081
O       4.38805598     8.19622798     4.01655000     0.07130366     0.07979576    -1.51789065
O       4.38010699     3.82660299     8.21933398     0.59701577    -0.93553223     0.53961228
O       4.40477200     3.76998499     3.60494201     0.65964479    -0.21381353    -0.63523395
O       1.52542502     8.41245002     8.39776302    -0.68125414     0.07853103     1.13366048
O       1.40932999     8.25246000     3.94114197     0.79667898     0.15728395    -2.14327522
O       1.43937498     3.88995201     8.12622101    -0.33030100     0.31553104     0.60052250
O       1.55620700     3.73105702     3.69020797    -0.72251702    -0.97040000    -0.43636496
O       3.06068300     6.11313698     7.85140101    -0.01183222     1.04682658    -1.37848204
O       2.98627200     5.98800900     3.12898999     0.13745045     0.53642514    -0.34715408
O       2.74962399     1.47879599     7.93422698     1.68940772     0.12656157    -0.29286599
O       3.15100800     1.51034500     3.37300601    -0.28020047    -0.74192012    -0.54314703
O       5.82787599     6.23085600     7.98382899    -1.02148321    -0.50566110    -0.73413996
O       0.12038100     6.02284003     3.19810001    -0.93970873     0.45441848    -0.99236186
O       0.20202998     1.50771901     7.85745998    -1.93286788    -0.70557833     1.03654551
O       2.71938601     7.89947200     6.22937801     1.62926934     0.38458550    -1.00149262
O       3.02083902     7.83969402     1.44702900     0.30670084     0.83968532    -0.21888298
O       2.97512298     3.30290098     6.00418499     0.23163951    -1.39213615     0.41182429
O       0.12417800     7.98960797     6.18976100    -0.79655042    -1.39090022     0.77292506
O       0.00997901     7.77529098     1.34343498    -0.39102586     1.32298065    -0.04142974
O       5.73992499     3.07584398     5.79925502     0.70266039    -0.44107163     1.53122671
O       0.07744700     3.20657198     1.28452200    -0.02047627     0.09369129     0.22578279
