# total energy = -19958.07397727 eV

CRYSTAL
PRIMVEC
        5.39790260     0.00000000     0.00000000
        0.85695905     5.68072650     0.00000000
        0.00000000     0.00000000     9.68849511
PRIMCOORD
24 1
Ti      2.46431319     3.36639320     3.59436261     0.45758377    -1.23561839     0.72853803
Ti      3.79054839     2.31433313     6.09413271    -0.45758377     1.23561839    -0.72853803
Ti      5.00446849     2.31433505     1.24984631    -0.73732890    -0.32073161     0.22033565
Ti      1.25039310     3.36639151     8.43864913     0.73732890     0.32073161    -0.22033565
Ti      2.03583378     0.52603006     1.24988516     0.45758377    -1.23561839    -0.72853803
Ti      4.21902781     5.15469644     8.43861028    -0.45758377     1.23561839     0.72853803
Ti      0.82191367     0.52602798     6.09409386     0.73732890     0.32073161     0.22033565
Ti      5.43294792     5.15469853     3.59440147    -0.73732890    -0.32073161    -0.22033565
O       2.01022008     2.00028030     4.94396494     0.82800608     1.04801598    -0.42881903
O       4.24464150     3.68044603     4.74453033    -0.82800608    -1.04801598     0.42881903
O       1.29226590     2.00030326     0.09974848    -0.28037453    -0.01017180     0.47010633
O       4.96259573     3.68042312     9.58874657     0.28037453     0.01017180    -0.47010633
O       3.81616208     0.84008272     0.09971706    -0.82800608    -1.04801598    -0.42881903
O       2.43869950     4.84064361     9.58877800     0.82800608     1.04801598     0.42881903
O       4.53411631     0.84005981     4.94399642     0.28037453     0.01017180     0.47010633
O       1.72074521     4.84066658     4.74449891    -0.28037453    -0.01017180    -0.47010633
O       0.71736935     3.45533987     2.61710428     0.04881524     0.36057447     0.36545468
O       5.53749223     2.22538641     7.07139105    -0.04881524    -0.36057447    -0.36545468
O       3.23078023     2.22533358     2.22717420     0.63148091     0.40883821    -0.11553256
O       3.02408134     3.45539270     7.46132096    -0.63148091    -0.40883821     0.11553256
O       0.28888993     0.61497656     2.22714322     0.04881524     0.36057447    -0.36545468
O       5.96597165     5.06574972     7.46135189    -0.04881524    -0.36057447     0.36545468
O       2.59560192     0.61502939     7.07142192    -0.63148091    -0.40883821    -0.11553256
O       3.65925965     5.06569689     2.61707335     0.63148091     0.40883821     0.11553256
