# total energy = -19913.94136662 eV

CRYSTAL
PRIMVEC
        7.08819279     0.00000000     0.00000000
        0.00003296     6.17234802     0.00000000
        0.00000000     0.00000000    11.64950121
PRIMCOORD
24 1
Ti      2.56914848     3.65772759     4.32188201     0.37665287    -0.88312387     0.96041692
Ti      4.51907733     2.51462016     7.32761966    -0.37665287     0.88312387    -0.96041692
Ti      6.11312207     2.51462216     1.50282228     0.37655568     0.88334421    -0.96047142
Ti      0.97510375     3.65772580    10.14667952    -0.37655568    -0.88334421     0.96047142
Ti      2.56913227     0.57155372     1.50286899     0.37665287    -0.88312387    -0.96041692
Ti      4.51909355     5.60079424    10.14663281    -0.37665287     0.88312387     0.96041692
Ti      0.97508753     0.57155146     7.32757295    -0.37655568    -0.88334421    -0.96047142
Ti      6.11313828     5.60079643     4.32192872     0.37655568     0.88334421     0.96047142
O       2.24346940     2.17338857     5.94465147     0.95356775     1.42889960    -0.87202287
O       4.84475642     3.99895918     5.70485019    -0.95356775    -1.42889960     0.87202287
O       1.30069163     2.17341352     0.11993816    -0.95381098     1.42904384    -0.87222882
O       5.78753425     3.99893431    11.52956318     0.95381098    -1.42904384     0.87222882
O       4.84474020     0.91278511     0.11990034    -0.95356775    -1.42889960    -0.87202287
O       2.24348561     5.25956265    11.52960100     0.95356775     1.42889960     0.87202287
O       5.78751797     0.91276023     5.94468929     0.95381098    -1.42904384    -0.87222882
O       1.30070772     5.25958759     5.70481238    -0.95381098     1.42904384     0.87222882
O       0.25755036     3.75437198     3.14682102    -0.82407564     0.07871641     0.00818228
O       6.83067546     2.41797577     8.50268065     0.82407564    -0.07871641    -0.00818228
O       3.80165385     2.41791841     2.67796687    -0.82508377    -0.07866396    -0.00840237
O       3.28657197     3.75442935     8.97153460     0.82508377     0.07866396     0.00840237
O       0.25753408     0.66819791     2.67792965    -0.82407564     0.07871641    -0.00818228
O       6.83069174     5.50414985     8.97157182     0.82407564    -0.07871641     0.00818228
O       3.28655569     0.66825527     8.50271781     0.82508377     0.07866396    -0.00840237
O       3.80167013     5.50409248     3.14678380    -0.82508377    -0.07866396     0.00840237
