# total energy = -19958.51563075 eV

CRYSTAL
PRIMVEC
        7.60600008     0.00000000     0.00000000
        0.00000000     7.60600008     0.00000000
       -1.89786986    -1.89786986     4.85670466
PRIMCOORD
24 1
Ti      3.83535701     6.52113603     1.20398101     0.01979159     0.86486106     1.72351779
Ti      3.64708601     2.75131101     1.09334100     0.77992618     0.41081641     3.05999211
Ti      0.10812700     6.72486101     1.29586798    -1.20181120     0.64686383    -1.46698202
Ti     -0.01496497     2.99161500     1.26680700    -1.65650813    -0.84492523    -2.47553489
Ti      5.83130321     2.92543525     3.66327883    -1.90583221    -0.93797760    -0.80695902
Ti      5.71979424    -0.93991680     3.60272979    -1.16023927     1.40253447     2.10947677
Ti      1.94141120     2.73933324     3.62800282     1.18140460     0.06125707    -0.40640903
Ti      1.81696120    -1.13188177     3.68907580     1.44209605     0.81467851     0.23440473
O       3.75385498     4.70132901     0.69649003     0.26784966     0.59255851     0.28481740
O       3.69065000     0.90588298     0.84495600     0.14230187    -1.42417365    -0.03899157
O      -0.04859101     4.82079300     0.70424798     0.13691207     0.68434795     1.37619325
O      -0.14514602     1.00794000     0.67991000     0.70141340     0.31031607     2.27468409
O       5.67181522     4.87989723     4.04393979     0.22519324    -1.49415499     1.00238248
O       5.80384420     1.05544524     3.80419281     0.16236188    -0.48928060     1.61247489
O       1.72331122     4.68954921     3.98996080     0.93983600    -0.86582625     1.25362126
O       1.96298020     0.79348822     4.12778782    -0.13870104     2.32456428    -2.06430504
O       3.93524223     2.75506520     2.96651083    -2.86712536     0.14657530     2.39689947
O       3.68195323    -0.94256576     3.13637683     1.34730946    -0.44243842     0.28648450
O      -0.03245079     3.08486725     3.08148983     2.34060000    -0.81849505     2.87786358
O       0.02340720    -0.90376875     3.34862681    -0.05490439     0.14211418    -0.99327357
O       5.74435600     6.52466902     1.83565100    -0.62135565     0.00952183    -4.28931129
O       5.77682499     2.93684198     1.78875600    -0.05443773     0.39291947    -3.69185971
O       1.90831699     6.65574300     1.75030800    -1.12272609    -0.22548249    -1.96907752
O       1.84722400     3.23949898     1.82080102     1.09664558    -1.26117491    -2.29010866
