# total energy = -39034.68335281 eV

CRYSTAL
PRIMVEC
        7.60600008     0.00000000     0.00000000
        0.00000000     7.60600008     0.00000000
       -3.79573973    -3.79573973     9.71340985
PRIMCOORD
46 1
Ti      1.78825445     4.76098242     6.01978064     0.52094863     0.41127356    -0.20867055
Ti      3.71023998     6.86978398     1.30473398     1.02762866    -1.27487246    -0.31171552
Ti      1.99640346     0.82519747     6.14906161    -1.13946835    -0.53578570    -2.12939640
Ti      4.04135799     2.91425802     1.21596100     0.07302553    -0.70362121    -0.03062751
Ti     -1.97899454     4.61042044     6.13234564    -0.30112977    -0.26536674    -0.63214246
Ti      0.00515800     6.71733003     1.14861102    -0.68028638     1.07148579     2.64375966
Ti     -2.03254553     0.88445643     5.98181561     1.20627669     0.26344870     0.51845363
Ti      0.15658498     2.88548199     1.19906300    -0.16802320    -0.65271540    -1.80458444
Ti      3.73830643     1.12629747     8.59856261     1.54362535    -2.62452317    -0.91451345
Ti      5.75020002     2.85225998     3.52598401     0.24063786    -1.69921263     1.44001834
Ti      3.55040845    -2.91157953     8.38713063     2.46767760     2.09470783     1.86063837
Ti      5.75295799    -1.06842702     3.66078699     0.35759353     1.51923328    -0.48196401
Ti      0.08421946     0.93169243     8.34949661    -2.54828402     0.89255699     0.52194365
Ti      1.93315398     2.68781302     3.45832197     0.23238719     0.37550179     1.24654044
Ti     -0.10399254    -2.77583154     8.51810962    -0.95647516    -1.23442797     0.56924785
Ti      1.95012601    -1.11756901     3.66138501    -0.01194689     0.94003603     1.14541763
O       2.11757145    -1.05971158     5.65456563    -1.17202187     0.35278531    -0.23558384
O       3.86752501     0.95456099     0.95624800     0.17121985     2.58171378    -1.24832581
O       5.37289347     2.71989746     5.68684761     0.68798967     1.98274705    -0.62747693
O      -0.20350400     4.78114101     0.79615802     0.76058556     0.62162278     0.31978159
O       5.41704945    -0.89415853     5.56101064     0.79092382    -2.44152870     0.85883208
O      -0.20708701     0.97918498     0.88860597     0.71659268    -0.32647057    -0.91910210
O      -3.40743153     2.91115143     9.00349661    -1.39282598     0.13434636    -0.88635678
O       5.92269302     4.68135400     4.11849102    -0.66989501    -0.17393159     0.44452076
O       3.75029145    -0.88243254     8.92407864     0.37615176    -0.61199246     0.37116999
O       5.51137503     0.88544001     3.87769098     1.22751992     1.87191472     1.02531210
O      -0.15340854     2.88417948     9.06638462     0.85245137    -0.65375182    -0.11955531
O       2.11713599     4.49637501     4.18480698    -0.91215215     0.51015308    -0.99210063
O       0.06010744    -0.92063755     9.01570865     0.12702386     0.78525942    -1.38026819
O       1.73872700     1.00458501     4.13274002     1.19309464    -0.26433316     0.33522698
O       1.94966743     1.16759843     8.06664560    -0.01917247     0.66732802     0.75842172
O       3.90451698     3.02923098     3.05117199     0.65815740     0.05773800     1.31709616
O       1.81538642    -2.67099354     7.94773460    -1.23336379    -0.63532651     1.74481604
O       3.73339402    -0.74886000     3.48263698    -0.57653719    -1.45892032    -1.88244211
O      -1.73070055     0.93120644     7.93908160    -1.21974002    -0.08006932     0.71183743
O       0.07263201     2.83255601     3.31944898     0.30243049     0.20192809    -0.76369094
O      -1.96580654    -2.82794556     8.13391863     0.81244499     0.58517841    -0.92176422
O       0.03766398    -0.89747498     3.31922599    -0.08382082    -0.72779627    -0.37025750
O       3.67500143     4.59211244     6.53329160     0.77667347    -0.47905223    -0.38182362
O       5.64044803     6.70483298     1.75775997     0.09742839    -1.01112552    -0.79167972
O       3.78164748     0.77834644     6.65068465     0.38913352     0.63003518    -0.40925473
O       5.95352098     2.82972301     1.60969602    -2.90542093     0.70048138     0.18299114
O      -0.05399053     4.60275044     6.43398360    -0.70570997    -0.00500080     0.54407237
O       1.86417900     6.81223400     1.59309499    -0.14666015    -1.02923303     0.92645135
O       0.08569443     1.02849144     6.36483363     0.38756335    -0.32878020     0.18514238
O       2.05693700     2.95851200     1.61057102    -1.15425091    -0.03363801    -1.22839461
