# total energy = -4906.45278947 eV

CRYSTAL
PRIMVEC
        5.48699229     0.00000000     0.00000000
       -0.00000712     2.08127265     0.00000000
       -2.74352904    -1.04073511     6.05566723
PRIMCOORD
6 1
Ti     -0.00023445     1.56101339     1.51391654    -0.04642437    -0.03487626    86.03694622
Ti      2.74369063    -0.52047612     4.54175021     0.04642437     0.03487626   -86.03694622
O       0.00005825     0.52030160     0.98641863     0.04575665     0.03540256   -80.29313613
O       2.74339777     0.52023562     5.06924818    -0.04575665    -0.03540256    80.29313613
O      -0.00002379    -0.52035893     4.01425224    -0.00112897    -0.00009127    -0.52936000
O       2.74347971     1.56089609     2.04141457     0.00112897     0.00009127     0.52936000
