# total energy = -19516.76872856 eV

CRYSTAL
PRIMVEC
        5.17600016     0.00000000     0.00000000
        0.00000000     5.50899976     0.00000000
        0.00000000     0.00000000     9.26300011
PRIMCOORD
23 1
Ti      1.96972102     3.22796000     3.38293999    -2.02157046    -0.15346895     2.60374608
Ti      3.32196400     2.30308401     5.85820600     0.54986301    -0.29403764    -1.88527392
Ti      4.34360900     2.09428802     1.57629901     1.92880760    -0.45171625    -1.23345172
Ti      0.91728500     3.27196400     7.76612298    -2.29337448     0.96408948     0.98049827
Ti      1.85943498     0.21120999     1.26851502     1.49024691    -1.11203364     0.16853742
Ti      3.27295198     5.29734299     7.83460698     1.05535622    -1.35022381     2.33631654
Ti      0.74318801     0.60504402     5.91588198    -0.90422389    -0.86376886    -2.71226673
Ti      4.46622900     4.90367999     3.45979298     1.60587101    -0.02818753     2.41916600
O       1.68499498     1.85742702     4.70671000     0.66238507     0.00231322     0.39396951
O       3.63930001     3.47703802     4.46565701    -0.20362502     0.39133053    -0.50812679
O       5.07545098     2.62967797     9.22301399    -0.05074383    -0.44539288    -0.07304815
O       3.61990598     0.34818699     0.38487400    -0.07957644     1.78491833    -0.98257701
O       1.71481999     4.62449798     9.08275302    -0.86079255    -0.08282272    -0.54910402
O       4.17194898     0.70184800     5.01295298    -0.13585714    -0.46742776    -1.26055501
O       0.97004201     4.69489501     4.47474902    -0.07725448     0.41057267     0.52729926
O       0.29929101     3.44182397     2.45031800    -0.91314460    -0.63316576    -0.41771134
O       5.16508900     2.35341099     6.39231200    -0.20409759    -0.13137931     1.72903024
O       2.60614202     1.86022801     2.27241602     0.31898969    -0.36026491    -1.58650082
O       2.48019202     3.80419101     6.92242902     1.04699268    -0.54363014    -0.69377594
O       0.20044499     0.61020598     2.20796001    -0.20420506     1.07033342    -0.37403703
O       4.96157299     4.73769201     7.08583102     0.60178260     0.95572722     1.13504528
O       2.34388299     1.14572299     7.10063301    -1.37907160     0.53378050     0.61603886
O       2.85065499     4.57114802     2.39445800     0.06724234     0.80445477    -0.63321846
