# total energy = -4988.69400102 eV

CRYSTAL
PRIMVEC
        3.17845519     0.00000000     0.00000000
        0.49677401     4.95532408     0.00000000
       -0.00000331    -0.00006463     4.98641511
PRIMCOORD
6 1
Ti      1.83761300     2.47762973     2.49320756     0.00000000     0.00000000     0.00000000
Ti      0.00000000     0.00000000     0.00000000     0.00000000     0.00000000     0.00000000
O       1.68604089     0.96570713     0.97177885     0.20521473    -0.50120821    -0.54445752
O       1.98918517     3.98955232     4.01463620    -0.20521473     0.50120821     0.54445752
O       0.15157076     1.51189640     3.46498742    -0.20518002     0.50079709    -0.54366434
O       0.34520017     3.44336293     1.52142764     0.20518002    -0.50079709     0.54366434
