# total energy = -19517.16291270 eV

CRYSTAL
PRIMVEC
        5.93400000     0.00000000     0.00000000
        0.00000000     9.29699974     0.00000000
        0.00000000     0.00000000     4.64899994
PRIMCOORD
23 1
Ti      4.50606901     7.01480998     2.18417799    -1.16121012     1.66807861    -0.44995968
Ti      4.47118300     2.22805202     2.38716001     1.70194031    -0.06058293    -0.18606901
Ti      1.38336199     7.00960901     2.38467298     1.01676421     0.38017322    -1.02199923
Ti      1.51720399     2.40166597     2.36657300    -1.62238341    -0.44849440    -0.78375430
Ti      2.90124100     4.47553998     0.11181600     0.46006694     0.15326557     0.37481736
Ti      2.95407998     0.12448900     0.00794401     0.03473819    -1.03979461     0.66018472
Ti      5.88428899     4.71648798     0.02623698     0.76999169    -0.55844330     0.15602205
Ti      0.04559502     9.25592601     4.58733899    -0.65764498     0.71560050    -0.23076611
O       4.46610502     5.53689201     0.85094797    -1.34475944     1.37786678     0.68486783
O       4.40517502     0.89460901     0.86296501     0.64449713     0.17734062     0.71111572
O       1.49276399     5.59640000     0.87418801     1.05528346    -0.15559782    -0.35814118
O       1.42499998     1.00780400     0.87791098     0.75450876    -1.12645188    -0.37464664
O       4.52129000     8.48992702     3.49850801    -0.33507349    -0.44852526     1.45095607
O       4.55243102     3.76618201     3.94213201    -1.86411322    -1.66982028    -2.78105328
O       1.49399300     8.35158400     3.70535901     0.05919479    -0.20570633     0.37928774
O       1.42473100     3.54528400     3.87628897     1.01464459     1.80711415    -0.25342139
O       2.89494903     1.46559899     3.33017498     1.08751019     0.15025995    -0.88294749
O       5.85150201     5.96242502     2.99013701     0.74284057    -0.48162488     1.72647019
O       0.07482699     1.41088498     3.20879299    -0.58462280    -0.28044241     0.05139251
O       2.97072202     7.88803399     1.37993001    -0.13775307    -0.78858231     0.30466298
O       3.11587000     3.16294201     1.35984303    -0.85222048     0.10939919     1.13958842
O       0.05862702     7.92924298     1.43453401    -0.22850996     0.12383852    -1.03109862
O       0.02845301     3.18804501     1.41824700    -0.55369036     0.60112928     0.71449081
