# total energy = -19960.64955959 eV

CRYSTAL
PRIMVEC
        5.93400000     0.00000000     0.00000000
        0.00000000     9.29699974     0.00000000
        0.00000000     0.00000000     4.64899994
PRIMCOORD
24 1
Ti      4.38217602     6.97317601     2.28582098     1.50137079    -0.64548289     0.35557033
Ti      4.50682399     2.21598699     2.29550402     0.02686007     1.93623603     0.60935502
Ti      1.50827402     7.02845201     2.37084399    -1.48093437    -1.18833038    -0.01207879
Ti      1.49024902     2.36392299     2.29194202     0.22638237     0.56301678    -0.15609456
Ti      2.97587901     4.65160000     4.64549499     0.34536587    -0.71748254     0.60575521
Ti      2.96996101     9.28231402     4.63523800    -0.16544952     0.28183903    -1.05027443
Ti      0.00735800     4.69874102     4.59238899    -0.36732953    -0.01846953     0.44352497
Ti      5.92291501     9.27192299     0.10582000     0.28136621    -0.51957978    -0.74537002
O       4.50406999     5.49224701     0.92845699    -1.27515914     1.07700132     0.59944290
O       4.51072498     0.92467898     0.93853099    -0.72110703    -0.72450192    -1.11181792
O       1.43568000     5.49709502     1.01761801     0.78054016     0.87890057    -0.02040634
O       1.47716300     0.90165501     0.82970400    -0.04411346     0.27913809     0.56466151
O       4.44893501     8.33698299     3.79504598    -0.14590219     0.83955857    -0.17962170
O       4.46247798     3.65816100     3.79426401    -0.76064778     0.46090049    -0.44989617
O       1.49225698     8.42798598     3.70357499     0.20795553    -0.28580265     0.23844291
O       1.43119998     3.82492698     3.78017599     1.02299476    -1.12808504    -1.25145253
O       3.03878401     6.03664002     3.21662201    -0.84489284     0.50926065    -0.02955973
O       2.86571098     1.31615299     3.18929001     0.61678217     0.86363747    -0.32149060
O       0.04503600     6.24203302     3.39714199     0.13035266    -0.22265864    -1.23749298
O       0.04512400     1.40411902     3.10849798    -0.55792394    -0.35234462     0.91354337
O       3.03458800     7.94481799     1.40701002    -0.72784564    -0.60162371     0.53397050
O       2.89912000     3.29863999     1.45276099     0.23981434    -0.64534199    -0.05188462
O       5.87139701     7.82324602     1.38011898     1.08437242     0.60684922    -0.01822090
O       5.81396498     3.24539999     1.29240399     0.62714783    -1.24663454     1.77139509
