# total energy = -19914.97712351 eV

CRYSTAL
PRIMVEC
        7.71704721     0.00000000     0.00000000
        0.00002527     3.51997357     0.00000000
        0.00000000     0.00000000    11.74474270
PRIMCOORD
24 1
Ti      2.79707330     2.08593309     4.35721578    -0.16341141     0.08792250     2.03334946
Ti      4.91999885     1.43404053     7.38752709     0.16341141    -0.08792250    -2.03334946
Ti      6.65546482     1.43404173     1.51510868    -0.16271541    -0.08795901    -2.03363460
Ti      1.06160733     2.08593201    10.22963430     0.16271541     0.08795901     2.03363460
Ti      2.79706083     0.32594636     1.51515580    -0.16341141     0.08792250    -2.03334946
Ti      4.92001131     3.19402732    10.22958718     0.16341141    -0.08792250     2.03334946
Ti      1.06159486     0.32594505     7.38747998     0.16271541     0.08795901    -2.03363460
Ti      6.65547729     3.19402863     4.35726289    -0.16271541    -0.08795901     2.03363460
O       2.44250297     1.23944252     5.99325234     3.26971501     0.24075973    -0.66068814
O       5.27456917     2.28053105     5.75149052    -3.26971501    -0.24075973     0.66068814
O       1.41608337     1.23945672     0.12091870    -3.26982737     0.24046483    -0.66031379
O       6.30098883     2.28051691    11.62382383     3.26982737    -0.24046483     0.66031379
O       5.27455676     0.52054426     0.12088060    -3.26971501    -0.24075973    -0.66068814
O       2.44251538     2.99942936    11.62386193     3.26971501     0.24075973     0.66068814
O       6.30097642     0.52053007     5.99329044     3.26982737    -0.24046483    -0.66031379
O       1.41609566     2.99944356     5.75145243    -3.26982737     0.24046483     0.66031379
O       0.28039343     2.14104745     3.17254804    -0.91921034     0.17794354     0.31823096
O       7.43667872     1.37892612     8.57219483     0.91921034    -0.17794354    -0.31823096
O       4.13892685     1.37889333     2.69986074    -0.92043779    -0.17761547    -0.31898403
O       3.57814529     2.14108030     9.04488196     0.92043779     0.17761547     0.31898403
O       0.28038102     0.38106066     2.69982326    -0.91921034     0.17794354    -0.31823096
O       7.43669113     3.13891296     9.04491944     0.91921034    -0.17794354     0.31823096
O       3.57813288     0.38109346     8.57223225     0.92043779     0.17761547    -0.31898403
O       4.13893926     3.13888017     3.17251056    -0.92043779    -0.17761547     0.31898403
