# total energy = -19960.71549334 eV

CRYSTAL
PRIMVEC
        5.93400000     0.00000000     0.00000000
        0.00000000     9.29699974     0.00000000
        0.00000000     0.00000000     4.64899994
PRIMCOORD
24 1
Ti      4.44180202     6.86835700     2.15617298     0.57269467    -0.05565001     0.59350442
Ti      4.45257898     2.32771901     2.28747699    -0.66433397     1.47279220    -0.33087925
Ti      1.50550102     6.99364300     2.35106001    -0.61729022    -0.56337108    -0.19298887
Ti      1.43183701     2.27773600     2.41702101     0.64005606     0.72027913    -0.75968516
Ti      2.92878499     4.69759001     4.61383601     0.31496411    -0.59970412     0.91916792
Ti      2.98134002     0.09251198     0.06222399     0.79970902    -0.49490772    -0.63136007
Ti      0.03219102     4.59021200     4.55839501    -0.77530668     0.24973880     0.33237640
Ti      0.01118300     0.02274700     0.04401098    -0.91026753    -0.58270501    -0.30692530
O       4.48246898     5.56398101     0.83228903    -0.37388379    -0.18044677     0.14303798
O       4.42354001     0.83431101     1.07816102     0.34507945     0.10691088    -0.58409006
O       1.50602798     5.61194802     0.86198502     0.15084179    -0.19731836    -0.16645997
O       1.51169800     0.86644398     1.15530797    -0.41961756    -0.55218832    -1.15578663
O       4.39617303     8.48298400     3.81239802     0.25318202     0.00647970     0.07747842
O       4.53395200     3.68775497     3.71848202    -0.36272108     0.88499126     0.46383412
O       1.47249999     8.54890800     3.78278298     0.13470632    -0.67680253    -0.49404383
O       1.48941800     3.75880998     3.76133501     0.29111352    -0.33594869    -0.28780862
O       2.96596101     5.94734199     3.08401099    -0.27222696     0.44939789     0.68649740
O       3.08298200     1.52530400     3.22402298    -1.33610382    -0.87723836     1.53180675
O       5.88624901     6.07335100     3.26480900     0.44240989     0.36569302    -0.52738128
O       5.83790401     1.46871198     3.34623202     1.03807506    -0.22402056     0.15500878
O       2.93527302     7.80978799     1.42772303     0.01409942     0.83192187    -0.21245650
O       2.90001299     3.33083799     1.40796699     0.65803630    -0.72745097     0.17312890
O       5.91557400     7.72179502     1.32103602     0.45623343     1.10080049     0.36354101
O       0.10339002     3.20713201     1.40355598    -0.37944997    -0.12125250     0.21048318
