# total energy = -19515.89608344 eV

CRYSTAL
PRIMVEC
        5.17600016     0.00000000     0.00000000
        0.00000000     5.50899976     0.00000000
        0.00000000     0.00000000     9.26300011
PRIMCOORD
23 1
Ti      1.84777001     3.35178902     3.41792898    -1.28591330    -1.30501634     1.91074816
Ti      3.53823801     2.29319099     5.90799300    -0.61376960    -1.40178679    -1.37605698
Ti      4.16920102     2.11038999     1.42929198     1.49151292     0.38966908    -0.84751973
Ti      0.83673602     3.41534199     7.76837902    -0.82355319     0.77974080     1.24065415
Ti      1.83253002     0.34549099     1.38869499     0.46138772    -1.08770920    -1.36985573
Ti      3.32725202     5.02967201     8.01894101    -2.83323898     2.45787757     1.16255121
Ti      0.89786700     0.48179398     5.90989900    -0.61245937    -0.07865830    -2.29066068
Ti      4.32896000     4.83968198     3.40267301     1.52628402     1.77723330     1.45924197
O       1.86544501     2.00330801     4.73177099    -0.50487820    -0.58172696     1.12354242
O       3.82799499     3.35662099     4.36967299    -0.51867860    -0.45931387     1.12942330
O       5.11421300     2.89857299     9.20510399    -0.77110832    -0.36096013     1.35658549
O       3.41815499     0.93125602     0.17248601    -0.15712326    -1.13952954    -0.16476227
O       1.52087097     4.92475903     8.92722698     0.43623281     0.37852412     0.94366514
O       4.32241498     0.46700099     4.93592498     0.08582397     1.70757412    -0.93885229
O       1.24428601     4.77103298     4.41593298     0.01858497     0.84667513     1.51109651
O       0.23053401     3.69538502     2.47677798     0.40897833    -2.33196958    -1.44673612
O       0.03044198     1.94307102     6.86638597    -0.22731569     0.35605267    -0.82562781
O       2.34537898     2.10848701     2.01635800     0.43915410    -1.48948998    -0.45784757
O       2.70932899     3.31003698     7.41521099     0.24070342    -0.80688626    -0.90601904
O       0.07720500     0.64653501     2.06833701    -0.33349354     1.37307861    -0.06467227
O       4.78490499     4.77219299     7.05357602     3.20638460    -0.77552779    -0.99517824
O       2.60701098     0.75755200     6.74557100    -0.08941812    -0.81059842     0.96257484
O       2.85609397     4.41346500     2.23389498     0.45590330     2.56274828    -1.11629447
