# total energy = -19899.80061293 eV

CRYSTAL
PRIMVEC
        6.77551324     0.00000000     0.00000000
        3.39353241     6.36280437     0.00000000
        0.00000000     0.00000000    12.54889926
PRIMCOORD
24 1
Ti      4.46680186     3.77059198     4.65555215    -0.14711575    -2.04933042     0.27123169
Ti      5.70224396     2.59221255     7.89334725     0.14711575     2.04933042    -0.27123169
Ti      7.22597217     2.59221482     1.61884742    -0.30664967    -1.49187931     0.53982851
Ti      2.94307387     3.77059001    10.93005205     0.30664967     1.49187931    -0.53982851
Ti      2.77003592     0.58919001     1.61889776    -0.14711575    -2.04933042    -0.27123169
Ti      7.39901004     5.77361477    10.93000178     0.14711575     2.04933042     0.27123169
Ti      1.24630760     0.58918756     7.89329692     0.30664967     1.49187931     0.53982851
Ti      8.92273834     5.77361715     4.65560241    -0.30664967    -1.49187931    -0.53982851
O       3.33941323     2.24045163     6.40360727     1.73246497     1.90187888    -0.86846549
O       6.82963267     4.12235295     6.14529213    -1.73246497    -1.90187888     0.86846549
O       2.43823771     2.24047725     0.12919796     0.24119965    -1.25770006     1.86171772
O       7.73080828     4.12232739    12.41970104    -0.24119965     1.25770006    -1.86171772
O       5.13286660     0.94095073     0.12915723    -1.73246497    -1.90187888    -0.86846549
O       5.03617929     5.42185379    12.41974176     1.73246497     1.90187888     0.86846549
O       6.03404221     0.94092517     6.40364792    -0.24119965     1.25770006     1.86171772
O       4.13500364     5.42187943     6.14525141     0.24119965    -1.25770006    -1.86171772
O       2.31030882     3.87021826     3.38977076     0.62865193     3.25956661     3.02305228
O       7.85873709     2.49258632     9.15912857    -0.62865193    -3.25956661    -3.02305228
O       4.96330230     2.49252689     2.88471879     0.43006910     2.19094735     2.14015775
O       5.20574360     3.87027769     9.66418034    -0.43006910    -2.19094735    -2.14015775
O       0.61354275     0.68881605     2.88467874     0.62865193     3.25956661    -3.02305228
O       9.55550314     5.67398847     9.66422039    -0.62865193    -3.25956661     3.02305228
O       3.50897753     0.68887547     9.15916856    -0.43006910    -2.19094735     2.14015775
O       6.66006836     5.67392905     3.38973070     0.43006910     2.19094735    -2.14015775
