# total energy = -19870.75421892 eV

CRYSTAL
PRIMVEC
        9.89862667     0.00000000     0.00000000
        0.00003077     3.51171072     0.00000000
        0.00000000     0.00000000    15.74788014
PRIMCOORD
24 1
Ti      3.58779407     2.08103640     5.84235135     0.29463105     0.02904551     1.93807591
Ti      6.31086296     1.43067398     9.90552926    -0.29463105    -0.02904551    -1.93807591
Ti      8.53693856     1.43067511     2.03152604     0.29556564    -0.02877117    -1.93657619
Ti      1.36171854     2.08103541    13.71635470    -0.29556564     0.02877117     1.93657619
Ti      3.58777909     0.32518111     2.03158919     0.29549854     0.02875189    -1.93578532
Ti      6.31087801     3.18652941    13.71629155    -0.29549854    -0.02875189     1.93578532
Ti      1.36170349     0.32517991     9.90546611    -0.29422610     0.02890075    -1.93835693
Ti      8.53695361     3.18653061     5.84241450     0.29422610    -0.02890075     1.93835693
O       3.13298852     1.23653294     8.03602288     0.28929344     0.54444492    -2.11381139
O       6.76566858     2.27517752     7.71185773    -0.28929344    -0.54444492     2.11381139
O       1.81640406     1.23654719     0.16213328    -0.28843803     0.54464058    -2.11613361
O       8.08225311     2.27516326    15.58574685     0.28843803    -0.54464058     2.11613361
O       6.76565353     0.51932209     0.16208214    -0.28893065    -0.54454854    -2.11617861
O       3.13300357     2.99238830    15.58579800     0.28893065     0.54454854     2.11617861
O       8.08223806     0.51930790     8.03607395     0.28973618    -0.54448992    -2.11572892
O       1.81641890     2.99240255     7.71180665    -0.28973618     0.54448992     2.11572892
O       0.35965848     2.13602152     4.25389537    -1.56685682     0.53084944     0.30143882
O       9.53899863     1.37568886    11.49398516     1.56685682    -0.53084944    -0.30143882
O       5.30898490     1.37565631     3.62009496    -1.56672338    -0.53093506    -0.30568654
O       4.58967220     2.13605414    12.12778538     1.56672338     0.53093506     0.30568654
O       0.35964343     0.38016616     3.62004469    -1.56690798     0.53095383    -0.30445267
O       9.53901368     3.13154429    12.12783564     1.56690798    -0.53095383     0.30445267
O       4.58965722     0.38019871    11.49403536     1.56595359     0.53088363    -0.30132183
O       5.30899988     3.13151167     4.25384511    -1.56595359    -0.53088363     0.30132183
