# total energy = -39034.03980615 eV

CRYSTAL
PRIMVEC
        5.93200024     0.00000000     0.00000000
        0.00000000     9.29399984     0.00000000
        0.00000000     0.00000000     9.29399984
PRIMCOORD
46 1
Ti      4.54891999     6.92313299     6.86689700    -1.35471579     0.27934481     0.09298372
Ti      4.49534301     6.96710597     2.40847903     0.52690845    -0.19178945    -1.42911068
Ti      4.52599698     2.45683202     7.04703899    -2.32570123    -1.08022883    -0.60472497
Ti      4.26526002     2.42125400     2.18905102     0.57432938    -1.64338624     0.01787663
Ti      1.48447400     6.94278398     7.01518199     1.10668934     0.04659483    -1.44479956
Ti      1.54484598     7.08676798     2.33535297    -0.56483146     0.10047875    -0.61825515
Ti      1.47594398     2.25195797     6.99781799     2.03497414     0.26781520     0.30809926
Ti      1.27658000     2.14329100     2.46269599     0.55574055    -0.81021353    -0.94776091
Ti      2.97464799     4.67297099     4.55340699     0.09919217     0.37029067     1.58507566
Ti      2.88034802     4.79359398     9.03634201     0.94209806    -0.01047391     1.39831606
Ti      2.96773000     0.04791398     4.64009701     0.96891493    -0.02526470     0.88624776
Ti      2.95595798     9.10721398     9.17482198     1.16209484     1.68170007     0.48417953
Ti      0.05392602     4.57005802     4.52524698     0.41284887     1.25503151     0.85656848
Ti      0.05095601     4.67039601     9.19983100    -1.10703541     0.44706076     1.58823246
Ti      0.03625901     9.20357800     4.79277799    -1.30591237     0.38951533     0.70635789
Ti      0.04418101     0.00838301     0.00050801    -1.69102906     0.97633539     1.52289505
O       4.28007000     5.72423800     5.42036601     1.15321501    -1.11032026    -0.07637928
O       4.49776998     5.73327000     0.88126999    -0.03066479    -1.05901927     0.06833892
O       4.55091398     0.88080400     5.75449303    -0.17360121    -0.00297220    -1.33559166
O       4.19447997     0.74477401     0.92612898     1.82934366     2.05463538     1.25064366
O       1.53357800     5.59412602     5.50595599    -0.01016075    -0.35899093    -0.01901511
O       1.44628799     5.65448699     0.75800699     0.49428988    -0.60192658     0.68530492
O       1.56611103     0.91464499     5.65078000    -0.79652677    -0.33227458    -0.22133530
O       1.52666499     0.88772997     0.94462198    -1.17910552     0.37918541     0.48581964
O       4.41237098     8.42672500     8.28178901     1.37059544    -0.62614330     0.68017788
O       4.45756103     8.37825998     3.99709300     0.19595079    -0.08682747    -1.70444277
O       4.45254199     3.95404898     8.29383102    -0.43054398    -0.82058948     0.78956268
O       4.57993602     3.59223102     3.86897998    -1.33075412    -0.10654990    -1.79438076
O       1.33450099     8.18226898     8.63771802     0.38905048    -0.22161503    -1.91074868
O       1.44727798     8.17822903     3.96144301     1.07662568     1.66327708    -0.33707432
O       1.46106299     3.79735102     8.26346202     0.42414733     0.11460594     1.17305417
O       1.50895999     3.71632499     3.69946799    -0.67339248    -0.21269176    -0.40972421
O       3.01219200     6.07335899     7.84104099    -0.15161287     0.55857468    -0.25212170
O       2.96866299     6.05946100     3.08682298     0.25047131    -1.20039478     1.00099305
O       2.97424603     1.44564800     8.03104102    -1.17682186     0.32077275    -1.11490916
O       2.88055202     1.53055301     3.30075299     1.02042674    -0.55230247    -0.14570936
O       0.09119899     5.91969502     7.78758900    -0.38049770     0.74441409    -0.42794511
O       0.05454801     6.15724602     3.28734401    -0.59944958    -1.36772480    -0.01496845
O       5.82395400     1.59761099     8.10751999     1.23782979    -0.80074004    -0.19008610
O       3.14573300     7.93309899     6.21489300    -2.19264916     0.38735715    -0.59967430
O       2.97698399     7.95650497     1.46691701    -0.04849848    -0.81463994     0.78704531
O       2.93974499     3.29321698     6.18482499    -0.28084453    -0.32831765    -0.77000506
O       0.04917200     7.85211598     6.12218702     0.68942511     0.23965313     0.26884467
O       0.06058699     7.99672001     1.54973098    -0.81994799     0.02798004     0.09799249
O       5.86369298     3.14230298     6.02287903     1.36417745     0.98678873    -0.15802726
O       0.01479299     3.01195398     1.42454299    -1.25504282     1.07398490    -0.20782055
