# total energy = -19899.70356743 eV

CRYSTAL
PRIMVEC
        8.55940077     0.00000000     0.00000000
        0.00002865     4.38619555     0.00000000
        0.00000000     0.00000000    12.93189442
PRIMCOORD
24 1
Ti      3.10238822     2.59925550     4.79764060     0.33601477    -0.42142582     2.81354098
Ti      5.45704140     1.78694024     8.13425396    -0.33601477     0.42142582    -2.81354098
Ti      7.38194209     1.78694180     1.66825501     0.33196297     0.42177395    -2.81482010
Ti      1.17748759     2.59925414    11.26363973    -0.33196297    -0.42177395     2.81482010
Ti      3.10237395     0.40615779     1.66830687     0.33601477    -0.42142582    -2.81354098
Ti      5.45705573     3.98003808    11.26358787    -0.33601477     0.42142582     2.81354098
Ti      1.17747327     0.40615611     8.13420210    -0.33196297    -0.42177395    -2.81482010
Ti      7.38195635     3.98003976     4.79769246     0.33196297     0.42177395     2.81482010
O       2.70911458     1.54445408     6.59904675     1.02709387     1.25915247    -2.32420484
O       5.85031510     2.84174166     6.33284780    -1.02709387    -1.25915247     2.32420484
O       1.57065625     1.54447173     0.13314109    -1.02741218     1.25939827    -2.32519960
O       6.98877349     2.84172401    12.79875307     1.02741218    -1.25939827     2.32519960
O       5.85030078     0.64864389     0.13309915    -1.02709387    -1.25915247    -2.32420484
O       2.70912884     3.73755185    12.79879508     1.02709387     1.25915247     2.32420484
O       6.98875923     0.64862624     6.59908869     1.02741218    -1.25939827    -2.32519960
O       1.57067032     3.73756957     6.33280586    -1.02741218     1.25939827     2.32519960
O       0.31100038     2.66793281     3.49322730    -2.27997285     0.72047120     0.11959851
O       8.24842924     1.71826299     9.43866726     2.27997285    -0.72047120    -0.11959851
O       4.59071147     1.71822205     2.97276108    -2.27953757    -0.72042312    -0.11990293
O       3.96871814     2.66797376     9.95913328     2.27953757     0.72042312     0.11990293
O       0.31098612     0.47483497     2.97271979    -2.27997285     0.72047120    -0.11959851
O       8.24844356     3.91136077     9.95917457     2.27997285    -0.72047120     0.11959851
O       3.96870388     0.47487592     9.43870848     2.27953757     0.72042312    -0.11990293
O       4.59072580     3.91131982     3.49318600    -2.27953757    -0.72042312     0.11990293
