# total energy = -19946.30419525 eV

CRYSTAL
PRIMVEC
        6.55250278     0.00000000     0.00000000
        0.00002579     4.64922957     0.00000000
        0.00000000     0.00000000    10.18015557
PRIMCOORD
24 1
Ti      2.37498249     2.75512912     3.77676510     0.34889831     0.43341848    -0.20750919
Ti      4.17754619     1.89410045     6.40339057    -0.34889831    -0.43341848     0.20750919
Ti      5.65112092     1.89410207     1.31327204     0.34924181    -0.43352029     0.20751047
Ti      0.90140776     2.75512772     8.86688370    -0.34924181     0.43352029    -0.20751047
Ti      2.37496959     0.43051445     1.31331285     0.34889831     0.43341848     0.20750919
Ti      4.17755909     4.21871529     8.86684289    -0.34889831    -0.43341848    -0.20750919
Ti      0.90139487     0.43051271     6.40334971    -0.34924181     0.43352029     0.20751047
Ti      5.65113382     4.21871702     3.77680591     0.34924181    -0.43352029    -0.20751047
O       2.07391764     1.63707279     5.19485548     1.12393220     0.21764371     0.02122961
O       4.47861105     3.01215683     4.98530020    -1.12393220    -0.21764371    -0.02122961
O       1.20239036     1.63709152     0.10481041    -1.12348534     0.21718811     0.02088611
O       5.35013843     3.01213810    10.07534493     1.12348534    -0.21718811    -0.02088611
O       4.47859821     0.68754200     0.10477736    -1.12393220    -0.21764371     0.02122961
O       2.07393047     3.96168757    10.07537798     1.12393220     0.21764371    -0.02122961
O       5.35012554     0.68752332     5.19488847     1.12348534    -0.21718811     0.02088611
O       1.20240309     3.96170636     4.98526715    -1.12348534     0.21718811    -0.02088611
O       0.23808340     2.82792497     2.74991401    -0.89540783     0.23500380     0.73771533
O       6.31444529     1.82130465     7.43024167     0.89540783    -0.23500380    -0.73771533
O       3.51434212     1.82126130     2.34019621    -0.89528108    -0.23456440    -0.73772742
O       3.03818657     2.82796832     7.83995930     0.89528108     0.23456440     0.73772742
O       0.23807050     0.50331013     2.34016366    -0.89540783     0.23500380    -0.73771533
O       6.31445818     4.14591943     7.83999179     0.89540783    -0.23500380     0.73771533
O       3.03817373     0.50335349     7.43027410     0.89528108     0.23456440    -0.73772742
O       3.51435495     4.14587614     2.74988152    -0.89528108    -0.23456440     0.73772742
