# total energy = -19945.83128853 eV

CRYSTAL
PRIMVEC
        6.31959357     0.00000000     0.00000000
        0.00002939     5.50305727     0.00000000
        0.00000000     0.00000000    10.38630228
PRIMCOORD
24 1
Ti      2.29056612     3.26110653     3.85324420     0.25136605    -0.44012057     0.39555048
Ti      4.02905690     2.24195051     6.53305849    -0.25136605     0.44012057    -0.39555048
Ti      5.45025341     2.24195228     1.33986565     0.25144138     0.44015348    -0.39570629
Ti      0.86936961     3.26110493     9.04643716    -0.25144138    -0.44015348     0.39570629
Ti      2.29055166     0.50957801     1.33990729     0.25136605    -0.44012057    -0.39555048
Ti      4.02907136     4.99347920     9.04639552    -0.25136605     0.44012057     0.39555048
Ti      0.86935515     0.50957600     6.53301685    -0.25144138    -0.44015348    -0.39570629
Ti      5.45026787     4.99348115     3.85328585     0.25144138     0.44015348     0.39570629
O       2.00020163     1.93771993     5.30005071     0.92126620     0.96896121    -0.43657579
O       4.31942139     3.56533710     5.08625198    -0.92126620    -0.96896121     0.43657579
O       1.15965278     1.93774217     0.10693282    -0.92080829     0.96838374    -0.43701417
O       5.15997030     3.56531492    10.27936958     0.92080829    -0.96838374     0.43701417
O       4.31940693     0.81380841     0.10689910    -0.92126620    -0.96896121    -0.43657579
O       2.00021609     4.68924863    10.27940330     0.92126620     0.96896121     0.43657579
O       5.15995578     0.81378623     5.30008443     0.92080829    -0.96838374    -0.43701417
O       1.15966712     4.68927086     5.08621826    -0.92080829     0.96838374     0.43701417
O       0.22962321     3.34727141     2.80559946    -0.55416601    -0.00397596     0.13111731
O       6.08999980     2.15578563     7.58070323     0.55416601     0.00397596    -0.13111731
O       3.38942632     2.15573448     2.38758492    -0.55385362     0.00401966    -0.13119033
O       2.93019669     3.34732255     7.99871759     0.55385362    -0.00401966     0.13119033
O       0.22960870     0.59574271     2.38755173    -0.55416601    -0.00397596    -0.13111731
O       6.09001432     4.90731432     7.99875078     0.55416601     0.00397596     0.13111731
O       2.93018218     0.59579386     7.58073636     0.55385362    -0.00401966    -0.13119033
O       3.38944084     4.90726318     2.80556628    -0.55385362     0.00401966     0.13119033
