# total energy = -19890.77263934 eV

CRYSTAL
PRIMVEC
        8.87382774     0.00000000     0.00000000
        0.00002970     4.54732110     0.00000000
        0.00000000     0.00000000    13.40694361
PRIMCOORD
24 1
Ti      3.21635350     2.69473836     4.97388046     0.35929792    -0.49109940     2.80121279
Ti      5.65750415     1.85258294     8.43306328    -0.35929792     0.49109940    -2.80121279
Ti      7.65311547     1.85258456     1.72953785     0.36749871     0.49107703    -2.80146682
Ti      1.22074224     2.69473694    11.67740609    -0.36749871    -0.49107703     2.80146682
Ti      3.21633871     0.42107788     1.72959162     0.35929792    -0.49109940    -2.80121279
Ti      5.65751900     4.12624356    11.67735233    -0.35929792     0.49109940     2.80121279
Ti      1.22072739     0.42107613     8.43300952    -0.36749871    -0.49107703    -2.80146682
Ti      7.65313025     4.12624531     4.97393422     0.36749871     0.49107703     2.80146682
O       2.80863307     1.60118913     6.84146071     0.81441831     1.31695321    -2.42928253
O       6.06522464     2.94613217     6.56548303    -0.81441831    -1.31695321     2.42928253
O       1.62835383     1.60120743     0.13803199    -0.81572855     1.31732371    -2.43069406
O       7.24550395     2.94611387    13.26891135     0.81572855    -1.31732371     2.43069406
O       6.06520978     0.67247162     0.13798851    -0.81441831    -1.31695321    -2.42928253
O       2.80864786     3.87484968    13.26895490     0.81441831     1.31695321     2.42928253
O       7.24548916     0.67245332     6.84150419     0.81572855    -1.31732371    -2.43069406
O       1.62836841     3.87486804     6.56543955    -0.81572855     1.31732371     2.43069406
O       0.32242488     2.76593851     3.62154993    -2.31140486     0.72990175     0.06991141
O       8.55143276     1.78138286     9.78539381     2.31140486    -0.72990175    -0.06991141
O       4.75934985     1.78134041     3.08196455    -2.30986065    -0.72957059    -0.07046496
O       4.11450779     2.76598096    10.32497899     2.30986065     0.72957059     0.07046496
O       0.32241010     0.49227789     3.08192174    -2.31140486     0.72990175    -0.06991141
O       8.55144761     4.05504341    10.32502180     2.31140486    -0.72990175     0.06991141
O       4.11449300     0.49232034     9.78543655     2.30986065     0.72957059    -0.07046496
O       4.75936471     4.05500096     3.62150712    -2.30986065    -0.72957059     0.07046496
