# total energy = -19517.14092807 eV

CRYSTAL
PRIMVEC
        5.93400000     0.00000000     0.00000000
        0.00000000     9.29699974     0.00000000
        0.00000000     0.00000000     4.64899994
PRIMCOORD
23 1
Ti      4.53001799     6.92571198     2.33938901     0.12811786     0.67218432     0.02941729
Ti      4.48017600     2.37751898     2.35525099    -0.51128102    -0.24521931     0.49142773
Ti      1.51342302     7.09334602     2.32619800    -0.27147800     0.43861751    -0.17365597
Ti      1.42813801     2.29701001     2.25199502     0.60693561    -0.10138095     1.31633280
Ti      2.89551900     4.49173201     0.01523099     0.37656159    -1.85852801    -0.24464313
Ti      3.00688499     0.04948400     0.01818798     0.60054307     0.41947358    -0.85290645
Ti      5.91377501     4.70916200     0.02474502    -0.21184664    -0.84963164    -0.57478318
Ti      0.05286798     0.02039899     0.09045200    -1.32440375     0.18692030    -1.10383182
O       4.44015602     5.49366701     0.91806702    -0.28005674     0.60178517    -0.13239181
O       4.35558301     0.98828000     0.96158603     0.61568045    -1.03848258    -0.55886805
O       1.58037002     5.45403100     0.76600402    -0.60460670     1.74039272     0.62162638
O       1.44081900     0.93250202     0.83663299    -0.10146400    -0.61517651     0.55664250
O       4.34478700     8.41742302     3.72603603     0.48229182    -0.84509184    -0.04670076
O       4.49204899     3.60484301     3.82543102    -0.31476871     1.17390932    -0.78401141
O       1.31258803     8.43926401     3.60487200     0.61613425    -0.15489514     1.10824383
O       1.51023298     3.60416000     3.63924000     0.47457388     2.29649991     1.22876022
O       2.79154398     1.38764901     3.23598302     1.64784968    -0.52528403     0.25227365
O       0.13226801     6.05054801     3.07034498    -1.16484103    -1.39581771     1.69633428
O       5.91919701     1.56899499     3.35995898    -0.67875349    -1.20273242    -0.98502033
O       2.94265197     7.90648502     1.50022401     0.79427962    -0.27056346    -0.66794457
O       2.91630498     3.15730600     1.41097499     0.81554728     0.87204164    -0.41988573
O       0.00919001     7.77175999     1.38132498    -0.26646280     1.19968618    -1.35416274
O       0.11663897     3.31487202     1.32980698    -1.42855250    -0.49870704     0.59774725
