# total energy = -19961.31636328 eV

CRYSTAL
PRIMVEC
        7.60600008     0.00000000     0.00000000
        0.00000000     7.60600008     0.00000000
       -1.89786986    -1.89786986     4.85670466
PRIMCOORD
24 1
Ti      3.75888698     6.63873800     1.29401697    -0.62048481    -0.41193125    -1.42268447
Ti      3.79993801     2.88544998     1.24318701    -0.64425724     0.40968050    -1.14342656
Ti     -0.03254398     6.61184701     1.23251001     0.63225507     0.89095391    -0.36312963
Ti     -0.02274399     2.89789803     1.18908398     0.59572714    -0.79987872     0.15798766
Ti      5.72656824     2.83598921     3.60427181     1.10340270     0.60562820     0.03530152
Ti      5.75479624    -0.96655479     3.64527982     0.94580533    -0.57283300     0.47050922
Ti      1.93891021     2.80786121     3.56280781    -1.78635712     0.64289996     1.26500148
Ti      1.97229124    -1.00577476     3.67672179    -1.67035430    -0.39492853    -0.02430130
O       3.60452100     4.76145800     0.78672099     0.99246496    -0.24693398    -0.01317691
O       3.60390001     0.97668398     0.86293802     0.90329932    -0.02018497    -0.20958715
O       0.05162701     4.79319000     0.65425401    -0.71912445    -0.82203058     0.93007326
O       0.05591901     0.97999700     0.76315101    -0.49432896     0.67150143     0.08742705
O       5.94840622     4.77500324     4.08987984    -1.01736250    -0.26582003    -0.28351231
O       5.89059223     0.95678925     3.93847884    -1.09578812    -0.00581867     0.60862534
O       1.73192824     4.70367623     4.10347784     0.80346515     0.69988848     0.34079368
O       1.75103921     0.91625025     4.04844584     1.04473036     0.19131637     0.06695669
O       3.77274724     2.97081622     3.18462483     0.66022046    -0.58209309     0.39029566
O       3.81450822    -1.23035478     3.28530980    -0.31614399     0.73697794    -0.26239917
O      -0.03935475     2.81059521     3.19386279     0.21691146     0.06942290    -0.79909453
O      -0.00448975    -1.09153275     3.19994679     0.24147450     0.39956886    -0.37618930
O       5.69476902     6.69894001     1.60010601    -0.55743054     0.03619086     0.03704858
O       5.70755902     2.95842601     1.57904798    -0.65052097    -0.06528162    -0.38827683
O       1.85371500     6.74484301     1.62979899     0.93281329    -0.28312921     1.18909760
O       1.82721698     3.11021701     1.68561798     0.49958327    -0.88316475    -0.29333958
