# total energy = -19957.29810853 eV

CRYSTAL
PRIMVEC
        7.60600008     0.00000000     0.00000000
        0.00000000     7.60600008     0.00000000
       -1.89786986    -1.89786986     4.85670466
PRIMCOORD
24 1
Ti      3.82137001     6.66819200     1.31031500    -3.54767168     1.96425695     0.59934340
Ti      3.75016497     2.94954102     1.37190901    -0.95710251    -0.91974771    -2.48440391
Ti      0.01866398     6.41470499     1.09447201     1.55493152     1.75565710     3.47963486
Ti      0.15117001     2.73348498     1.05510001     0.53845502    -1.11836138     1.79410077
Ti      5.75056722     2.76035925     3.53198683     0.89264955    -1.01501225    -0.94537699
Ti      5.69544325    -1.07808376     3.62810082     1.49962861     0.95155483     0.88768038
Ti      1.84729221     3.10951924     3.77465382    -0.67312406    -2.80278399    -1.98471189
Ti      1.78167720    -0.82468676     3.74242682    -0.83394662     2.13209554    -1.01976880
O       3.23489900     5.00155497     0.79170701     2.54778806    -0.32167392    -0.17652995
O       3.53415302     1.11509299     0.92075497     0.81276201    -1.16262217    -1.01576225
O       0.10875201     4.64429101     0.78658198    -0.79779792    -0.82379076    -0.64668051
O       0.47352802     0.86150300     0.83800499    -2.27033070     0.80075289    -2.33969523
O      -1.60801879     4.55463224     4.17143483    -0.88985296     1.44996671    -3.44363118
O       5.82195423     0.87889324     3.85715482    -0.42603838    -0.63794030     0.92626468
O       1.89840920     4.92902123     3.78688982     0.05487765    -0.67822256     2.35891166
O       1.83759520     1.19876322     4.03042481     0.72132172    -1.94498936     1.64972299
O       3.78922424     2.80950124     3.24383082     1.13443850     0.88252969     1.09047802
O       3.58580321    -0.91092175     3.35442183     3.85774555    -0.19987738    -0.53248080
O       0.21857920     2.61086620     2.98698681    -3.37380436     1.09449434     1.04991011
O      -0.11189977    -1.17155779     3.00967280    -0.30466915     0.38066559     2.27483476
O       5.62077200     6.70436100     1.67980799    -0.07451368    -0.59443490    -1.03224585
O       5.70469999     2.74787897     1.60261399     0.60267040     0.66749282     0.18070440
O       1.86465801     6.72315399     1.73706100    -0.52095043     0.08154308    -0.09632616
O       1.92410801     3.05546002     1.62555599     0.45253386     0.05844685    -0.57397200
