# total energy = -4990.32108536 eV

CRYSTAL
PRIMVEC
        3.77569043     0.00000000     0.00000000
        0.56317735     3.73345276     0.00000000
       -2.16946792    -1.86675565     4.83230812
PRIMCOORD
6 1
Ti      0.42224571     2.80023227     1.20807677     0.00006325    -0.00006325     0.00000000
Ti      1.74715455    -0.93353483     3.62423083    -0.00006325     0.00006325     0.00000000
O       0.14083405     0.93335760     0.78714338    -0.00020646     0.00012933    -0.09484237
O       2.02856604     0.93333969     4.04516422     0.00020646    -0.00012933     0.09484237
O      -0.14081095    -0.93333773     3.20329744     0.00012933    -0.00020646    -0.09484237
O       2.31021099     2.80003503     1.62901016    -0.00012933     0.00020646     0.09484237
