# total energy = -19930.75843268 eV

CRYSTAL
PRIMVEC
        6.11385790     0.00000000     0.00000000
        0.00002307     3.90419604     0.00000000
        0.00000000     0.00000000     9.33756677
PRIMCOORD
24 1
Ti      2.21599292     2.31362294     3.46417069    -0.48607212     2.57226600    -3.30072947
Ti      3.89788764     1.59057305     5.87339618     0.48607212    -2.57226600     3.30072947
Ti      5.27281668     1.59057436     1.20457544    -0.48350616    -2.57218989     3.30322781
Ti      0.84106393     2.31362178     8.13299148     0.48350616     2.57218989    -3.30322781
Ti      2.21598159     0.36152497     1.20461290    -0.48607212     2.57226600     3.30072947
Ti      3.89789898     3.54267111     8.13295408     0.48607212    -2.57226600    -3.30072947
Ti      0.84105255     0.36152356     5.87335873     0.48350616     2.57218989     3.30322781
Ti      5.27282802     3.54267253     3.46420810    -0.48350616    -2.57218989    -3.30322781
O       1.93508264     1.37473375     4.76488887     2.69596927    -2.37713565     3.62880441
O       4.17879798     2.52946218     4.57267800    -2.69596927     2.37713565    -3.62880441
O       1.12189809     1.37474952     0.09613549    -2.69530336    -2.37786661     3.62895405
O       4.99198258     2.52944647     9.24143109     2.69530336     2.37786661    -3.62895405
O       4.17878664     0.57736411     0.09610518    -2.69596927     2.37713565     3.62880441
O       1.93509397     3.32683182     9.24146139     2.69596927    -2.37713565    -3.62880441
O       4.99197119     0.57734840     4.76491913     2.69530336     2.37786661     3.62895405
O       1.12190933     3.32684759     4.57264770    -2.69530336    -2.37786661    -3.62895405
O       0.22214455     2.37475335     2.52230974     2.15222652    -0.33959555     2.22625400
O       5.89173607     1.52944259     6.81525709    -2.15222652     0.33959555    -2.22625400
O       3.27908053     1.52940629     2.14650335     2.15462150     0.33998018    -2.22656871
O       2.83480003     2.37478970     7.19106332    -2.15462150    -0.33998018     2.22656871
O       0.22213316     0.42265528     2.14647355     2.15222652    -0.33959555    -2.22625400
O       5.89174740     3.48154065     7.19109313    -2.15222652     0.33959555     2.22625400
O       2.83478870     0.42269163     6.81528684    -2.15462150    -0.33998018    -2.22656871
O       3.27909187     3.48150431     2.52227993     2.15462150     0.33998018     2.22656871
