# total energy = -4979.77573834 eV

CRYSTAL
PRIMVEC
        2.84331908     0.00000000     0.00000000
        1.90817345     4.02571576     0.00000000
       -0.00001247    -0.00005986     4.57816452
PRIMCOORD
6 1
Ti      2.37573993     2.01282797     2.28908216     0.00000000     0.00000000     0.00000000
Ti      0.00000000     0.00000000     0.00000000     0.00000000     0.00000000     0.00000000
O       1.79353194     0.78454109     0.89221681    -8.64615314     3.66310603     4.98870714
O       2.95794787     3.24111485     3.68594751     8.64615314    -3.66310603    -4.98870714
O       0.58220278     1.22826272     3.18129992     8.64734176    -3.66466797     4.99085762
O       1.32595809     2.79739310     1.39686441    -8.64734176     3.66466797    -4.99085762
