# total energy = -19953.16207496 eV

CRYSTAL
PRIMVEC
        5.50291644     0.00000000     0.00000000
        1.44169398     5.67655175     0.00000000
        0.00000000     0.00000000     9.92807505
PRIMCOORD
24 1
Ti      2.84888912     3.36391948     3.68324522     0.63013520    -2.01399316     0.94825148
Ti      4.09572147     2.31263265     6.24483039    -0.63013520     2.01399316    -0.94825148
Ti      5.33325805     2.31263461     1.28075295    -1.34000367    -0.51734163     0.43628294
Ti      1.61135256     3.36391774     8.64732278     1.34000367     0.51734163    -0.43628294
Ti      2.12804224     0.52564364     1.28079275     0.63013520    -2.01399316    -0.94825148
Ti      4.81656837     5.15090870     8.64728297    -0.63013520     2.01399316     0.94825148
Ti      0.89050557     0.52564147     6.24479059     1.34000367     0.51734163     0.43628294
Ti      6.05410503     5.15091082     3.68328503    -1.34000367    -0.51734163    -0.43628294
O       2.24935277     1.99881049     5.06622094     1.13449198     1.52719548    -0.69865589
O       4.69525776     3.67774164     4.86185467    -1.13449198    -1.52719548     0.69865589
O       1.51743341     1.99883340     0.10221513    -0.18054576    -0.26227987     0.75562513
O       5.42717724     3.67771882     9.82586021     0.18054576     0.26227987    -0.75562513
O       3.97441087     0.83946564     0.10218291    -1.13449198    -1.52719548    -0.69865589
O       2.97019972     4.83708649     9.82589242     1.13449198     1.52719548     0.69865589
O       4.70633034     0.83944277     5.06625315     0.18054576     0.26227987     0.75562513
O       2.23828020     4.83710942     4.86182246    -0.18054576    -0.26227987    -0.75562513
O       1.07685369     3.45280069     2.68182091     0.19641718     0.87514471     0.81270416
O       5.86775684     2.22375144     7.24625470    -0.19641718    -0.87514471    -0.81270416
O       3.51616345     2.22369850     2.28224849     0.97993982     0.70938331    -0.02694183
O       3.42844714     3.45285368     7.64582695    -0.97993982    -0.70938331     0.02694183
O       0.35600679     0.61452469     2.28221678     0.19641718     0.87514471    -0.81270416
O       6.58860380     5.06202749     7.64585866    -0.19641718    -0.87514471     0.81270416
O       2.70760024     0.61457762     7.24628635    -0.97993982    -0.70938331    -0.02694183
O       4.23701034     5.06197450     2.68178920     0.97993982     0.70938331     0.02694183
