# total energy = -19960.76107638 eV

CRYSTAL
PRIMVEC
        7.60600008     0.00000000     0.00000000
        0.00000000     7.60600008     0.00000000
       -1.89786986    -1.89786986     4.85670466
PRIMCOORD
24 1
Ti      3.83129600     6.55837698     1.22571400     0.90977491    -0.20765085     0.05512113
Ti      3.84755698     2.70495000     1.16923899    -0.36428663     0.51141292     2.19870051
Ti      0.01647202     6.72061399     1.17203500    -0.94440665    -0.46830707    -0.87968733
Ti     -0.03184499     2.89528400     1.23579202     0.29837920     0.28127468    -0.42524674
Ti      5.68391020     2.87010024     3.62193580    -1.76616366     0.94608584     0.68714634
Ti      5.74879125    -0.78401578     3.66817981    -1.15099667    -1.12400059    -0.75065647
Ti      1.83838521     2.73064023     3.68631979     1.38578089     1.73027671    -0.98250527
Ti      1.87516223    -0.94150079     3.64074080     0.88972878    -1.28600586    -0.75277043
O       3.86596901     4.60186401     0.75606602    -0.31859914     0.80438072     0.51506286
O       3.91422601     0.83151500     0.74759802    -0.54998154     0.32373595    -0.23392831
O      -0.03398202     4.80384700     0.84910702     0.57368840    -0.96448492    -0.18273274
O      -0.08939301     0.99601297     0.74321198     0.93920916     0.39669180     0.19973108
O       5.51634924     4.77629623     4.08477783     1.15095064     0.27704727    -0.31924551
O       5.41055522     1.00732721     4.04305479     1.31967318     0.43996297     0.86074215
O       2.02251820     4.60895022     4.05288881    -0.98389727     1.13805064    -0.08871029
O       1.95975323     0.85001821     4.09452083    -0.17166594     0.27836753    -0.53385352
O       3.83939622     2.91395723     3.24278581    -0.34884406    -0.64692965    -0.68455107
O       3.89500322    -0.77676976     3.14751379    -2.13070869    -0.86561079     0.31354152
O      -0.06853777     2.82009421     3.18517581     1.58431384    -0.03084476     0.60175458
O      -0.03766779    -0.62725179     3.07043881     0.82855938    -0.56272213     2.30140892
O       5.69525200     6.65476000     1.67446700     0.19578469    -0.39733792    -0.75067036
O       5.75069501     2.71114402     1.61441300    -0.78902403     0.40610332     0.14665424
O       1.88996703     6.73117600     1.69584401     0.64831624    -0.59740144    -0.73015423
O       1.99291698     2.78546802     1.68733701    -1.20558481    -0.38209461    -0.56515131
