# total energy = -19906.71643768 eV

CRYSTAL
PRIMVEC
        6.63200145     0.00000000     0.00000000
        1.39774845     6.91867664     0.00000000
        0.00000000     0.00000000    11.93021208
PRIMCOORD
24 1
Ti      3.23208588     4.10000137     4.42602374    -0.25911253    -1.63364356     0.65225415
Ti      4.79766371     2.81867544     7.50418881     0.25911253     1.63364356    -0.65225415
Ti      6.28911710     2.81867792     1.53903487     0.25916087    -0.12793891    -0.37785435
Ti      1.74063251     4.09999916    10.39117782    -0.25916087     0.12793891     0.37785435
Ti      2.53321181     0.64066331     1.53908270    -0.25911253    -1.63364356    -0.65225415
Ti      5.49653779     6.27801371    10.39112999     0.25911253     1.63364356     0.65225415
Ti      1.04175833     0.64066063     7.50414097    -0.25916087     0.12793891    -0.37785435
Ti      6.98799128     6.27801638     4.42607158     0.25916087    -0.12793891     0.37785435
O       2.59124121     2.43618369     6.08789609     1.72668385     1.86071576    -0.48419495
O       5.43850838     4.48249312     5.84231646    -1.72668385    -1.86071576     0.48419495
O       1.70914575     2.43621156     0.12282824    -0.92803977     0.43032981     0.70384541
O       6.32060391     4.48246532    11.80738398     0.92803977    -0.43032981    -0.70384541
O       4.73963429     1.02315485     0.12278951    -1.72668385    -1.86071576    -0.48419495
O       3.29011529     5.89552196    11.80742271     1.72668385     1.86071576     0.48419495
O       5.62172983     1.02312705     6.08793482     0.92803977    -0.43032981     0.70384541
O       2.40801970     5.89554984     5.84227774    -0.92803977     0.43032981    -0.70384541
O       1.09114572     4.20833125     3.22264803     0.50584262     1.20472606     1.43264595
O       6.93860386     2.71034556     8.70756452    -0.50584262    -1.20472606    -1.43264595
O       4.10451526     2.71028094     2.74249619     0.55803167     1.44315226     0.66525005
O       3.92523433     4.20839587     9.18771616    -0.55803167    -1.44315226    -0.66525005
O       0.39227164     0.74899298     2.74245807     0.50584262     1.20472606    -1.43264595
O       7.63747795     6.16968389     9.18775428    -0.50584262    -1.20472606     1.43264595
O       3.22636024     0.74905754     8.70760257    -0.55803167    -1.44315226     0.66525005
O       4.80338935     6.16961927     3.22260991     0.55803167     1.44315226    -0.66525005
