# total energy = -19518.17477500 eV

CRYSTAL
PRIMVEC
        7.60600008     0.00000000     0.00000000
        0.00000000     7.60600008     0.00000000
       -1.89786986    -1.89786986     4.85670466
PRIMCOORD
23 1
Ti      3.77533301     6.72025299     1.26312498     1.21575404     0.07171015    -0.21003478
Ti      3.83818303     2.95730198     1.14142300     0.81799780    -1.31983002     2.13342583
Ti      0.05256101     6.62703799     1.20569999    -1.26763969    -1.24162860     0.56923602
Ti      0.02636499     2.78457900     1.00312501    -1.59532100     1.25013176    -0.44861422
Ti      5.68636521     2.84912820     3.62168783    -1.59445865    -1.74423446     0.29507739
Ti      5.67311223    -1.08406976     3.63825880     0.26149646     0.95421181    -1.30199992
Ti      2.06505723     2.94319221     3.65294479     1.17799994    -0.00702580    -0.25546336
Ti      1.84256322    -0.85259578     3.71797983     0.20281512    -0.40795683    -0.01696620
O       3.82802002     4.68317702     1.05788999    -0.22239896     2.96990036    -0.77031051
O       3.56298800     1.12306700     0.82252899     0.36319340    -2.47008029    -0.91428488
O      -0.29235000     4.71155901     0.76748900     1.76066227     0.38267002    -0.38602711
O      -0.11531899     0.91017402     0.80385300     0.48366865    -1.36884683    -0.61737969
O       5.61622023     4.66087823     3.94953981     0.65955505     1.16502821     0.78426440
O       5.90282125     0.92388024     3.98448683     0.43226868    -0.20770202     0.14280555
O       1.96713223     4.79560623     4.10009179    -0.20326815     0.00051216     0.37732727
O       1.74794024     1.15027423     4.07075082    -0.48716355    -1.50946103    -0.17636694
O       3.86601320     2.51393024     3.30633380    -0.77281502     1.31443301    -0.75640726
O       3.83302223    -0.81740078     3.21096183    -0.74101226     0.22440957     0.66368476
O      -0.00609776    -0.99805179     3.21446180     0.67807832     0.00753822    -0.29713967
O       5.71185298     6.47570600     1.60546202    -0.22921290     1.06008191     0.47808498
O       5.84204403     2.79170898     1.69330100    -0.40703021    -0.08329349    -0.24957039
O       1.97777701     6.47205902     1.59759802    -1.88313527     0.50711789     0.20131694
O       1.63614599     2.87355698     1.81580199     1.34996541     0.45231481     0.75534180
