# total energy = -4984.71423910 eV

CRYSTAL
PRIMVEC
        3.61394140     0.00000000     0.00000000
       -0.00000730     3.26975687     0.00000000
       -1.80699620    -1.63491125     4.40357405
PRIMCOORD
6 1
Ti     -0.00015798     2.45244051     1.10089330     0.00080090    -0.00745877     4.64224804
Ti      1.80709559    -0.81759480     3.30268022    -0.00080090     0.00745877    -4.64224804
O       0.00003672     0.81743306     0.71730615     0.00171030     0.00454340     1.04031500
O       1.80690075     0.81741255     3.68626746    -0.00171030    -0.00454340    -1.04031500
O      -0.00001853    -0.81742163     2.91909308     0.00180234     0.00006196     2.83085299
O       1.80695600     2.45226719     1.48448054    -0.00180234    -0.00006196    -2.83085299
