# total energy = -19961.61430453 eV

CRYSTAL
PRIMVEC
        7.60600008     0.00000000     0.00000000
        0.00000000     7.60600008     0.00000000
       -1.89786986    -1.89786986     4.85670466
PRIMCOORD
24 1
Ti      3.86669700     6.70115202     1.14035099    -1.59885009     1.05831633     0.90521531
Ti      3.81339202     2.94081499     1.21170202     0.44184270    -1.00761725    -0.63402785
Ti     -0.08428502     6.58685799     1.24846201     2.35431119     0.42726145    -0.65096037
Ti      0.02460198     2.80019899     1.24669398    -0.54205431    -0.62917797     0.16863255
Ti      5.68806620     2.75880521     3.67881283     0.14271171     0.09382987    -0.56114399
Ti      5.69240122    -1.01086179     3.65777581    -0.40049112     0.13909390     0.53804313
Ti      1.93452423     2.91753124     3.65148882    -0.32825441    -0.43737386    -0.70821191
Ti      1.88752524    -0.86009078     3.63485783     0.26790314     0.00362886    -1.46965571
O       3.89222001     4.82225501     0.71962200    -0.12452629    -0.33887589     0.79007176
O       3.83477798     0.99988200     0.63750999    -0.10090324    -0.53022312     2.04947054
O      -0.04607800     4.67834298     0.78780199    -0.20566750     0.31832146     0.39198025
O      -0.07083598     0.94891900     0.85407001     0.13985675    -0.39185375    -0.84695229
O       5.65730523     4.71376023     4.06433079    -0.22643560     0.21070867    -0.01806406
O       5.72102320     0.87645823     4.05703280    -0.19639276     0.12349836     0.39553943
O       1.98138922     4.82433420     4.04265680    -0.13470194    -1.32458450    -0.68586259
O       1.94971320     0.96021921     4.12162682    -0.33670202     1.43368674    -0.90145867
O       3.75843120     2.72489723     3.09421982     0.09959455     0.34396128     1.95238051
O       3.74150922    -0.86904176     3.12013982     1.43579864    -0.30485042     0.14675554
O      -0.07582475     2.72705024     3.27576180     1.39967077     0.55628949    -0.28264507
O      -0.01790080    -0.99414879     3.20751879    -0.56062205    -0.14253893     0.31662787
O       5.73520499     6.74017201     1.61654098    -1.47870240    -0.33242216     0.32653048
O       5.66235099     2.77428100     1.70260801     0.40709783     0.47179658    -0.58760836
O       1.84871099     6.71842198     1.58727298     0.40651856    -0.22097843    -0.38257592
O       1.91155100     2.80337998     1.65033398    -0.86100209     0.48010356    -0.25208030
