# total energy = -19907.44877935 eV

CRYSTAL
PRIMVEC
        8.17510095     0.00000000     0.00000000
        0.00002877     4.68503524     0.00000000
        0.00000000     0.00000000    12.36824445
PRIMCOORD
24 1
Ti      2.96309805     2.77634769     4.58853064     0.43629631    -0.45138972     2.54081317
Ti      5.21203186     1.90868794     7.77971432    -0.43629631     0.45138972    -2.54081317
Ti      7.05050842     1.90868959     1.59554246     0.43616056     0.45104597    -2.54117749
Ti      1.12462149     2.77634617    10.77270264    -0.43616056    -0.45104597     2.54117749
Ti      2.96308379     0.43383014     1.59559203     0.43629631    -0.45138972    -2.54081317
Ti      5.21204612     4.25120562    10.77265306    -0.43629631     0.45138972     2.54081317
Ti      1.12460723     0.43382829     7.77966475    -0.43616056    -0.45104597    -2.54117749
Ti      7.05052268     4.25120741     4.58858022     0.43616056     0.45104597     2.54117749
O       2.58748128     1.64968063     6.31142067     0.90728119     1.34634376    -2.08076191
O       5.58764863     3.03535494     6.05682429    -0.90728119    -1.34634376     2.08076191
O       1.50013739     1.64969951     0.12733799    -0.90790906     1.34735317    -2.08319340
O       6.67499259     3.03533612    12.24090659     0.90790906    -1.34735317     2.08319340
O       5.58763438     0.69283731     0.12729787    -0.90728119    -1.34634376    -2.08076191
O       2.58749553     3.99219831    12.24094671     0.90728119     1.34634376     2.08076191
O       6.67497833     0.69281844     6.31146079     0.90790906    -1.34735317    -2.08319340
O       1.50015145     3.99221719     6.05678411    -0.90790906     1.34735317     2.08319340
O       0.29703781     2.84970405     3.34097150    -2.28852692     0.75424908     0.25786195
O       7.87809210     1.83533158     9.02727347     2.28852692    -0.75424908    -0.25786195
O       4.38459837     1.83528777     2.84319027    -2.28782629    -0.75443085    -0.25810954
O       3.79053154     2.84974786     9.52505444     2.28782629     0.75443085     0.25810954
O       0.29702356     0.50718636     2.84315079    -2.28852692     0.75424908    -0.25786195
O       7.87810636     4.17784926     9.52509392     2.28852692    -0.75424908     0.25786195
O       3.79051728     0.50723017     9.02731288     2.28782629     0.75443085    -0.25810954
O       4.38461263     4.17780546     3.34093202    -2.28782629    -0.75443085     0.25810954
