# total energy = -19071.85949805 eV

CRYSTAL
PRIMVEC
        5.93400000     0.00000000     0.00000000
        0.00000000     9.29699974     0.00000000
        0.00000000     0.00000000     4.64899994
PRIMCOORD
22 1
Ti      4.42619198     6.82242902     2.52763498    -0.12985644    -0.04762636    -0.46237965
Ti      4.36616100     2.32162998     2.16643499     1.44778436     0.41648210     1.47590221
Ti      1.51191999     7.24648801     2.58349900    -0.01020651     0.67357554     1.47516482
Ti      1.63225501     2.35306200     1.93807199    -1.30275557     0.74528801     1.03803958
Ti      2.95899799     4.65282198     4.39323397     1.09185999     0.33752863     0.93322800
Ti      3.00672502     0.06505599     0.18468201     0.78968403    -0.29383683    -1.00394057
Ti      5.81490702     4.42172699     4.15934297     1.70863881    -0.10685689     1.48457506
Ti      5.93138301     9.15725102     0.35181900    -1.48483885     0.01117762    -0.49230422
O       4.21610898     5.44021698     0.89965398     0.27118284     0.10966042     1.13162751
O       4.37484798     0.70592499     1.33528401     1.98261772    -0.54571119    -1.47429450
O       1.46789901     0.56585500     1.33538302     0.40104776     2.66764907     0.19198563
O       4.50100097     8.31190899     4.07304798    -0.59419373     1.37171798    -0.48493569
O       4.32186998     4.14172402     3.21106502    -0.87464308    -1.41521515    -0.92904456
O       1.46632100     8.53143500     4.00495498     0.03720285    -0.07998628    -1.26709616
O       1.54079402     4.03483101     3.20849798    -0.54047565    -0.38245637     0.22762062
O       2.89951101     6.41877600     3.66742203    -0.64283054    -1.18750223    -0.79950334
O       3.08528800     1.50862602     3.20794700    -0.72075762     0.13854934     1.67648252
O       0.01234602     6.32849302     3.65168398     0.49626886    -1.33029698    -1.03946140
O       2.98543902     7.97531098     1.76651098     0.39517253    -0.99702147    -0.98760866
O       3.14227298     2.78076602     0.94460002    -1.30782373     2.73145179    -1.98321036
O       0.00409297     7.97668197     1.66912802    -0.75730740    -2.57230713     1.08095979
O       0.15466401     3.12613598     0.92670700    -0.25577112    -0.24426389     0.20819310
