# total energy = -19953.38742968 eV

CRYSTAL
PRIMVEC
        4.84084145     0.00000000     0.00000000
        0.25747159     5.14568171     0.00000000
        0.00000000     0.00000000     8.66675093
PRIMCOORD
24 1
Ti      1.90714955     3.04932609     3.21530278     0.51754526     0.46081462    -0.46322323
Ti      3.19116329     2.09635543     5.45144825    -0.51754526    -0.46081462     0.46322323
Ti      4.27980720     2.09635719     1.11803810    -0.67219897    -0.79581252     1.04402716
Ti      0.81850569     3.04932453     7.54871303     0.67219897     0.79581252    -1.04402716
Ti      1.77841386     0.47648543     1.11807284     0.51764476     0.45703792     0.45152008
Ti      3.31989898     4.66919624     7.54867830    -0.51764476    -0.45703792    -0.45152008
Ti      0.68976999     0.47648352     5.45141347     0.67225708     0.79175763     1.05618669
Ti      4.40854290     4.66919815     3.21533756    -0.67225708    -0.79175763    -1.05618669
O       1.62281693     1.81188193     4.42257666    -1.40788339    -1.16007626    -0.26497310
O       3.47549591     3.33379959     4.24417437     1.40788339     1.16007626     0.26497310
O       0.97895327     1.81190269     0.08922905     1.41483797    -1.30090823    -0.08867275
O       4.11935962     3.33377888     8.57752173    -1.41483797     1.30090823     0.08867275
O       3.34676021     0.76095878     0.08920095     1.40817907     1.16020816    -0.26503430
O       1.75155263     4.38472274     8.57754984    -1.40817907    -1.16020816     0.26503430
O       3.99062392     0.76093807     4.42260482    -1.41452198     1.30053182    -0.08854523
O       1.10768887     4.38474356     4.24414622     1.41452198    -1.30053182     0.08854523
O       0.33248778     3.12989520     2.34110568    -0.67594687    -0.03712906    -0.71723289
O       4.76582511     2.01578632     6.32564540     0.67594687     0.03712906     0.71723289
O       2.69716958     2.01573838     1.99229739    -0.27200816    -0.66327518    -0.07867013
O       2.40114330     3.12994314     6.67445349     0.27200816     0.66327518     0.07867013
O       0.20375208     0.55705439     1.99226973    -0.67583863    -0.03705115     0.71778928
O       4.89456081     4.58862713     6.67448115     0.67583863     0.03705115    -0.71778928
O       2.27240761     0.55710233     6.32567301     0.27238251     0.66298028    -0.07932679
O       2.82590528     4.58857919     2.34107798    -0.27238251    -0.66298028     0.07932679
