# total energy = -4978.13083516 eV

CRYSTAL
PRIMVEC
        3.72334990     0.00000000     0.00000000
        0.00000000     5.83393110     0.00000000
        0.00000000    -0.00007571     5.83393109
PRIMCOORD
6 1
Ti      1.86167489     2.91692763     2.91696548     0.00000000     0.00000000     0.00000000
Ti      0.00000000     0.00000000     0.00000000     0.00000000     0.00000000     0.00000000
O       1.86167489     1.13693247     1.13694723     0.00000000    -0.96630809    -0.96630809
O       1.86167489     4.69692278     4.69698373     0.00000000     0.96630809     0.96630809
O       0.00000000     1.77996446     4.05391389     0.00000000     0.96626798    -0.96626798
O       0.00000000     4.05389079     1.78001707     0.00000000    -0.96626798     0.96626798
