# total energy = -4986.64263061 eV

CRYSTAL
PRIMVEC
        3.77378594     0.00000000     0.00000000
        0.00000000     3.94197120     0.00000000
        0.00000000    -0.00006889     5.13277454
PRIMCOORD
6 1
Ti      1.88689280     1.97095109     2.56638721     0.00000000     0.00000000     0.00000000
Ti      0.00000000     0.00000000     0.00000000     0.00000000     0.00000000     0.00000000
O       1.88689280     0.76821869     1.00030214     0.00000000     0.30664042     0.72505470
O       1.88689280     3.17368350     4.13247223     0.00000000    -0.30664042    -0.72505470
O       0.00000000     1.20270484     3.56669047     0.00000000    -0.30675329     0.72545965
O       0.00000000     2.73919735     1.56608395     0.00000000     0.30675329    -0.72545965
