# total energy = -19901.18450644 eV

CRYSTAL
PRIMVEC
        8.37695530     0.00000000     0.00000000
        0.00002948     4.80071513     0.00000000
        0.00000000     0.00000000    12.67363320
PRIMCOORD
24 1
Ti      3.03626096     2.84489949     4.70182770     0.45291156    -0.50429456     2.57354178
Ti      5.34072401     1.95581603     7.97180603    -0.45291156     0.50429456    -2.57354178
Ti      7.22459505     1.95581773     1.63493857     0.45290513     0.50434598    -2.57459619
Ti      1.15238992     2.84489792    11.03869529    -0.45290513    -0.50434598     2.57459619
Ti      3.03624636     0.44454199     1.63498937     0.45354225    -0.50273776    -2.57344408
Ti      5.34073862     4.35617366    11.03864450    -0.45354225     0.50273776     2.57344408
Ti      1.15237531     0.44454010     7.97175524    -0.45338773    -0.50275884    -2.57393464
Ti      7.22460966     4.35617549     4.70187849     0.45338773     0.50275884     2.57393464
O       2.65136970     1.69041348     6.46725822     0.79943854     1.40947516    -2.19028709
O       5.72561527     3.11030197     6.20637551    -0.79943854    -1.40947516     2.19028709
O       1.53717782     1.69043283     0.13048214    -0.79879397     1.40960732    -2.19110033
O       6.83980722     3.11028269    12.54315120     0.79879397    -1.40960732     2.19110033
O       5.72560066     0.70994441     0.13044103    -0.79958793    -1.40946154    -2.18989345
O       2.65138431     4.09077111    12.54319231     0.79958793     1.40946154     2.18989345
O       6.83979261     0.70992507     6.46729933     0.79885259    -1.41031000    -2.19220153
O       1.53719223     4.09079046     6.20633433    -0.79885259     1.41031000     2.19220153
O       0.30437208     2.92006711     3.42346462    -2.31608118     0.75591901     0.19448012
O       8.07261290     1.88064841     9.25016911     2.31608118    -0.75591901    -0.19448012
O       4.49286006     1.88060352     2.91339250    -2.31659412    -0.75591155    -0.19290943
O       3.88412491     2.92011200     9.76024097     2.31659412     0.75591155     0.19290943
O       0.30435747     0.51970948     2.91335204    -2.31585107     0.75582722    -0.19340514
O       8.07262750     4.28100604     9.76028142     2.31585107    -0.75582722     0.19340514
O       3.88411030     0.51975437     9.25020949     2.31660929     0.75587710    -0.19379414
O       4.49287467     4.28096115     3.42342417    -2.31660929    -0.75587710     0.19379414
