# total energy = -39032.67811292 eV

CRYSTAL
PRIMVEC
        5.93200024     0.00000000     0.00000000
        0.00000000     9.29399984     0.00000000
        0.00000000     0.00000000     9.29399984
PRIMCOORD
46 1
Ti      4.43839100     7.18139900     6.89406501    -0.78327916    -0.81907175    -0.62974490
Ti      4.51972898     6.58160199     2.30211001    -0.42988269     2.70297939     2.46346793
Ti      4.44854099     2.19766899     7.14231900    -0.96725348     0.58902144    -0.82972589
Ti      4.51003398     2.64532199     2.03989702    -0.37200971    -0.85253030     1.69593293
Ti      1.46823101     6.87918799     7.06268502     0.22561927     1.02005676     0.05408832
Ti      1.54004698     7.06918199     2.08102700     0.25056952     0.58621971     0.92344212
Ti      1.45475202     2.46409402     6.76241498     0.47107050    -0.23053317     0.46816643
Ti      1.48388799     2.01540997     2.68667301     0.01867496     1.01753039    -2.00523161
Ti      3.02328901     4.61048500     4.71113102     0.40845794     0.64768581    -1.59138978
Ti      2.90674301     4.90849402     9.10953500     0.81682204    -2.10215092    -1.60911548
Ti      2.86710700     9.20765499     4.62409602     1.19412951    -0.41304093    -0.05856538
Ti      3.03533298     0.10723502     0.09936499    -2.37538216    -0.15613055     0.38507581
Ti      0.07723601     4.66060099     4.73376202    -0.71084318    -0.23699384    -0.86135665
Ti      0.00044102     4.65974499     9.14151001     0.04773538    -1.91633080    -0.77574016
Ti      5.87363501     9.10909102     4.91892199    -1.37604155    -0.14889238    -0.44523347
Ti      5.87468098     0.04325701     9.17075901     2.13214388    -0.76086787     1.13487739
O       4.28895198     5.59160698     5.54714900     1.43323936     0.99550169     0.41923832
O       4.41793898     5.40923699     0.94403999     0.08059100    -1.31039869    -1.06884320
O       4.52704602     0.88349597     5.77545998    -0.41460648    -0.61508601    -1.41924022
O       4.53146200     0.77390501     1.12644898    -0.02079020     1.68820445    -0.92949605
O       1.47664700     5.64898000     5.55509300     0.15498744    -0.01155171     0.24495937
O       1.47849203     5.69423900     0.61186098    -0.86380331     0.26320753     1.40255041
O       1.35177302     0.80162199     5.60649601     0.79030778     1.93499959    -0.40879578
O       1.41404199     0.62254899     1.21908701     0.56273422     1.95386532     0.03252112
O       4.30524302     8.41714102     8.31244801     1.05676493     0.66159034     1.10258920
O       4.26161098     8.17564098     4.00474998     1.19243618     0.98225716    -0.50568784
O       4.34925897     3.89445298     8.18993601     0.80029112    -0.69608042     1.35377296
O       4.61426999     4.00689601     3.64651598    -1.88112724    -1.88644017    -1.32950894
O       1.57231102     8.39811699     8.52445901    -0.89911048    -0.20009078    -0.49559060
O       1.34131002     8.33283901     3.83816101     0.81453170     0.72916436    -0.74002830
O       1.52512402     3.57748602     8.33788699    -0.13808809     2.58928619     0.74621900
O       1.40981699     3.72586701     3.74967702     0.26656488    -0.81449879     0.22176493
O       3.00126301     6.03360899     7.65008700     0.67326907    -0.13167267     1.53800723
O       2.82723699     5.98962399     3.13248399     0.56027213     0.42418307    -0.70287327
O       2.82300500     1.49811402     7.85255800     0.96929160    -0.60596116     0.60897424
O       3.22231300     1.66224798     3.23581400    -0.91206833    -0.79702145     0.43818299
O       5.88292302     5.99740300     7.81894302    -0.19629634     0.34540496     0.12071000
O       0.04248198     6.00253502     3.26788299     0.20024916     1.13013884    -1.18846845
O       0.07456901     1.57289502     7.97814600    -0.52223367    -1.11683852     0.54602744
O       2.94553102     8.04163203     6.11290499    -0.69033117    -0.91642070     0.64444905
O       3.07113298     7.85624398     1.30799302    -0.23531105    -1.08600610     1.18665505
O       3.03046799     3.25711402     5.96004097    -0.90017286    -1.15068736     0.59012830
O       0.13716899     8.06358500     6.45129802    -0.90261181    -0.05674401    -1.49494638
O       5.91768801     7.91125201     1.47005202    -0.86084834    -1.75023490    -0.05096931
O       5.75707001     3.15147802     5.94319202     1.30314921     0.36478080     0.77764175
O       0.21049798     3.11819901     1.40036102     0.02818830     0.15619843     0.04110964
