# total energy = -19960.47691049 eV

CRYSTAL
PRIMVEC
        7.60600008     0.00000000     0.00000000
        0.00000000     7.60600008     0.00000000
       -1.89786986    -1.89786986     4.85670466
PRIMCOORD
24 1
Ti      3.85326198     6.73325800     1.23841299    -0.05781359     1.30053440     0.37210047
Ti      3.88856901     2.96291502     1.17309299    -1.07829484    -1.12822671     0.45595626
Ti      0.07276499     6.50673600     1.17717898    -0.83290146     2.08140931     0.85044462
Ti      0.03147901     2.83893498     1.31567599     0.88903098    -1.60067121    -2.32378241
Ti      5.72520222     2.64210623     3.62065382    -1.10848654    -0.00670724    -0.00120945
Ti      5.65334820    -1.05972877     3.67022682    -0.01059552    -0.16172219    -0.18310221
Ti      1.91446322     2.92823824     3.61563182     1.17546612     0.95203229    -0.21781443
Ti      1.84362623    -0.78444177     3.64130782    -0.08104017    -0.81995004     0.30093077
O       3.74768202     4.85576098     0.81825498    -0.14969791    -0.40877444    -0.62572858
O       3.66419902     1.00555399     0.90350702     0.92250830     1.00003917    -1.17016013
O       0.01525301     4.66934199     0.76354102     0.38910807    -1.03628686     0.43798142
O      -0.09634402     0.81264099     0.69873802     0.33959297     0.22358064     0.82090881
O       5.58367625     4.56777621     4.07621881     0.62815262     0.32536628    -0.78761944
O       5.53883425     0.79679325     4.08073782     0.97616981     2.41250530     0.15628791
O       1.89532225     4.98227123     3.93766681    -0.02025747    -2.11832677     0.74595109
O       1.87243422     1.12359724     3.99411182     0.29245178    -1.00256168     1.57847486
O       3.77009421     2.79713522     3.25126582     0.99797021     0.45139872    -0.70914060
O       3.80876220    -0.70973475     3.20849380    -0.82155595    -0.93016839    -0.18733219
O       0.05896320     2.66171421     3.16690883    -1.09684998     0.66723211     0.87896562
O      -0.05488976    -0.84255078     3.14904983    -0.53542909    -0.43454848     0.73414278
O       5.63282502     6.54129101     1.66087302     0.68670129    -0.14466009    -0.81555371
O       5.77977198     2.69473698     1.57180301    -1.43983759     0.58520464     0.82467136
O       1.82060401     6.90664499     1.76487497     0.68788862    -1.03551578    -1.73074953
O       1.96828499     2.78483798     1.54674499    -0.75228038     0.82881752     0.59537695
