# total energy = -19517.69630314 eV

CRYSTAL
PRIMVEC
        7.60600008     0.00000000     0.00000000
        0.00000000     7.60600008     0.00000000
       -1.89786986    -1.89786986     4.85670466
PRIMCOORD
23 1
Ti      3.70150803     6.67193101     1.23278598     1.11962971    -1.42742558    -1.25260567
Ti      3.70306100     2.66868702     1.19920302     2.29743116     2.11437729    -0.09722656
Ti     -0.07727898     6.65738800     1.16621601    -0.05506354    -0.71226937     0.10974012
Ti      0.09498001     2.77707998     1.25712401    -2.06623774     1.55726377    -0.57891135
Ti      5.69236121     2.88196820     3.66879080    -0.52908360     0.88190594    -0.48482616
Ti      5.64821322    -0.80779876     3.57366383     1.90144205    -0.05630538     0.78210750
Ti      1.96133721     2.80717625     3.67202581     1.09399117    -0.06926169     2.32344585
Ti      1.91687320    -1.03988378     3.51640182    -1.16812048     0.67924894     0.54106881
O       3.70519898     4.67297099     0.95996801    -0.27939828     0.91099798    -1.04202119
O       3.96178301     0.90483298     0.77321501    -0.44662264    -0.18709899    -0.57260057
O       0.24887502     4.68819399     0.89800501    -0.21688960     1.26270985     0.13601526
O      -0.09923799     1.02105100     0.65300399     0.32160990    -0.47321763     0.14982235
O       5.73979423     4.73444223     4.17976382     0.45640029     0.87697713    -1.53878679
O       5.74007824     1.10881023     4.09088882     0.52550668    -2.77828857    -0.93654601
O       1.89314923     4.73332921     3.88805280    -0.53584535    -0.12334049     0.75460260
O       1.83363420     0.85508720     4.09271480    -0.25453828     0.95949646     0.27326492
O       3.85979521     3.00855021     3.62350582    -1.08997614    -0.98335656    -1.74541048
O       3.86657323    -0.78481278     3.18544082    -1.44108174    -0.52934303    -0.47417176
O       0.03654525    -0.94856678     3.20353583    -0.62012357     0.04927650    -0.28199741
O       5.66319402     6.77712298     1.44022097     0.75598483    -0.70267581     1.25190453
O       5.76862301     2.83575399     1.64813398     0.05710088     0.04024549     1.37760196
O       1.90043701     6.95420299     1.47678802     0.02044953    -0.65323451     1.29943396
O       1.91264201     2.69132802     1.76175299     0.15343501    -0.63668148     0.00609634
