# total energy = -19949.76210068 eV

CRYSTAL
PRIMVEC
        5.70044129     0.00000000     0.00000000
        0.60521750     6.03673090     0.00000000
        0.00000000     0.00000000    10.21534305
PRIMCOORD
24 1
Ti      2.42478719     3.57736117     3.78981950     0.12331632    -1.18415003     0.71670376
Ti      3.88087178     2.45936977     6.42552389    -0.12331632     1.18415003    -0.71670376
Ti      5.16282892     2.45937182     1.31781139    -0.15812753     0.09363061    -0.26531712
Ti      1.14283006     3.57735941     8.89753218     0.15812753    -0.09363061     0.26531712
Ti      2.12217855     0.55899578     1.31785237     0.12331632    -1.18415003    -0.71670376
Ti      4.18348043     5.47773540     8.89749120    -0.12331632     1.18415003     0.71670376
Ti      0.84022135     0.55899356     6.42548297     0.15812753    -0.09363061    -0.26531712
Ti      5.46543757     5.47773757     3.78986048    -0.15812753     0.09363061     0.26531712
O       2.01733310     2.12563559     5.21281150     1.27236486     1.34401202    -0.27073238
O       4.28832587     3.91109542     5.00253190    -1.27236486    -1.34401202     0.27073238
O       1.25913816     2.12566000     0.10517269    -0.83890268     0.56192817     0.38688689
O       5.04652087     3.91107106    10.11017048     0.83890268    -0.56192817    -0.38688689
O       3.98571723     0.89272979     0.10513957    -1.27236486    -1.34401202    -0.27073238
O       2.31994174     5.14400121    10.11020360     1.27236486     1.34401202     0.27073238
O       4.74391223     0.89270543     5.21284468     0.83890268    -0.56192817     0.38688689
O       1.56174669     5.14402558     5.00249878    -0.83890268     0.56192817    -0.38688689
O       0.57523779     3.67188207     2.75941908     0.28442248     0.33645571     0.61344513
O       5.73042113     2.36484893     7.45592432    -0.28442248    -0.33645571    -0.61344513
O       3.29442655     2.36479271     2.34828510     0.54633597     0.68040362     0.03017191
O       3.01123242     3.67193823     7.86705818    -0.54633597    -0.68040362    -0.03017191
O       0.27262915     0.65351644     2.34825245     0.28442248     0.33645571    -0.61344513
O       6.03302977     5.38321450     7.86709077    -0.28442248    -0.33645571     0.61344513
O       2.70862378     0.65357266     7.45595692    -0.54633597    -0.68040362     0.03017191
O       3.59703520     5.38315834     2.75938648     0.54633597     0.68040362    -0.03017191
