# total energy = -19956.28300645 eV

CRYSTAL
PRIMVEC
        4.92310839     0.00000000     0.00000000
        0.52268784     5.21354032     0.00000000
        0.00000000     0.00000000     8.82234172
PRIMCOORD
24 1
Ti      2.09413439     3.08953919     3.27302593     0.88478506    -0.07214621     0.01854743
Ti      3.35166200     2.12400117     5.54931609    -0.88478506     0.07214621    -0.01854743
Ti      4.45880680     2.12400294     1.13810984    -1.20365545    -0.68556923     1.05657750
Ti      0.98698960     3.08953768     7.68423234     1.20365545     0.68556923    -1.05657750
Ti      1.83279057     0.48276908     1.13814523     0.88453541    -0.06549913    -0.01950825
Ti      3.61300582     4.73077148     7.68419694    -0.88453541     0.06549913     0.01950825
Ti      0.72564571     0.48276716     5.54928075     1.20321862     0.68915283     1.05769387
Ti      4.72015063     4.73077335     3.27306132    -1.20321862    -0.68915283    -1.05769387
O       1.74224222     1.83577619     4.50197357    -0.95003891    -0.64513656    -0.35895545
O       3.70355416     3.37776422     4.32036846     0.95003891     0.64513656     0.35895545
O       1.08743750     1.83579727     0.09083096     1.04457635    -1.01907074     0.03567330
O       4.35835893     3.37774319     8.73151087    -1.04457635     1.01907074    -0.03567330
O       3.44221033     0.77099391     0.09080235     0.94935140     0.64490207    -0.35879424
O       2.00358605     4.44254650     8.73153947    -0.94935140    -0.64490207     0.35879424
O       4.09701511     0.77097287     4.50200222    -1.04572307     1.01983950     0.03566224
O       1.34878123     4.44256754     4.32033985     1.04572307    -1.01983950    -0.03566224
O       0.49679627     3.17117088     2.38313466    -0.60096165    -0.26408787    -0.78702063
O       4.94900006     2.04236953     6.43920737     0.60096165     0.26408787     0.78702063
O       2.84518657     2.04232098     2.02806441     0.12427406    -0.74521987    -0.45575083
O       2.60060981     3.17121938     6.79427752    -0.12427406     0.74521987     0.45575083
O       0.23545244     0.56440056     2.02803620    -0.60170624    -0.26450362     0.78638325
O       5.21034389     4.64913980     6.79430567     0.60170624     0.26450362    -0.78638325
O       2.33926599     0.56444912     6.43923552    -0.12528399     0.74582305    -0.45526283
O       3.10653040     4.64909130     2.38310650     0.12528399    -0.74582305     0.45526283
