# total energy = -19071.72548165 eV

CRYSTAL
PRIMVEC
        5.93400000     0.00000000     0.00000000
        0.00000000     9.29699974     0.00000000
        0.00000000     0.00000000     4.64899994
PRIMCOORD
22 1
Ti      4.37422498     6.68711099     2.52449701     0.01784680     1.40470782    -2.49765127
Ti      4.39702098     2.39323602     2.13200101     0.33239517    -0.67159373     0.21840270
Ti      1.49260598     7.21921999     2.68775200    -0.17078919     1.24225415    -1.67577444
Ti      1.66200900     2.34252899     1.95363298    -1.58497770     2.49284896     1.75339350
Ti      2.99210899     4.66488399     4.41518001     1.12821823    -1.54252337     0.73215301
Ti      2.98416201     0.15319898     0.23363202     1.04276835    -0.15741559    -0.96244397
Ti      5.84833499     4.47080601     4.13563102     0.57812922    -2.54006935     0.72486110
Ti      5.87017599     9.26819001     0.27133601    -0.57904427    -1.72748475     1.45445534
O       4.22466102     5.45137702     0.96904002     0.49784109     0.33746899     0.69135421
O       4.50236800     0.68508202     1.38581399     0.48800405     0.43862188    -0.87995833
O       1.57630499     0.65906402     1.46420101    -1.23793804    -1.04946531    -1.59668728
O       4.44426301     8.43743899     4.10587898     0.64477429     0.39823626    -0.96016778
O       4.27491899     4.04161501     3.02228500     0.42102884     0.65557447     2.05647397
O       1.49539098     8.39925202     3.96184302    -0.27712877     2.31495581     1.40379251
O       1.63621600     3.96821399     3.19859998    -1.64478621    -0.06812063     0.21717936
O       2.86710801     6.33054501     3.63169499     0.24634366    -0.40717033    -0.43872549
O       3.02763900     1.46080899     3.37246000     0.38885070     0.56308877    -0.15825686
O       5.91451099     6.24940499     3.68375201     0.51753420     0.14335422    -1.26731676
O       3.06750002     7.95775098     1.64487001    -0.73349204    -2.24782634     0.98570424
O       3.04506201     2.86264598     0.87240802     0.36068194     1.63764908    -0.43042751
O       0.04691199     7.96032802     1.65565898    -0.25889424    -1.69884290     0.03353774
O       0.06707502     2.90831901     0.78695002    -0.17736582     0.48175189     0.59610252
