# total energy = -4982.35186542 eV

CRYSTAL
PRIMVEC
        4.63223474     0.00000000     0.00000000
       -0.00000752     3.08815613     0.00000000
       -2.31614467    -1.54412519     5.13173764
PRIMCOORD
6 1
Ti     -0.00019908     2.31622928     1.28293414    -0.00634523    -0.01067831    11.85534513
Ti      2.31628169    -0.77219866     3.84880280     0.00634523     0.01067831   -11.85534513
O       0.00004875     0.77203065     0.83591800     0.00421481     0.00509259    -5.31798125
O       2.31603375     0.77199992     4.29581899    -0.00421481    -0.00509259     5.31798125
O      -0.00001985    -0.77203349     3.40178671    -0.00225717    -0.00006222    -1.56160945
O       2.31610229     2.31606401     1.72995033     0.00225717     0.00006222     1.56160945
