# total energy = -19961.22818748 eV

CRYSTAL
PRIMVEC
        5.93400000     0.00000000     0.00000000
        0.00000000     9.29699974     0.00000000
        0.00000000     0.00000000     4.64899994
PRIMCOORD
24 1
Ti      4.42253902     6.84674900     2.27902698     0.37101624     0.53978351     0.46440619
Ti      4.47000500     2.33268301     2.33543801    -0.05566158    -0.92568541     0.32741340
Ti      1.49321400     7.01434102     2.33342201    -0.36252491     0.02555266    -0.03881313
Ti      1.47526399     2.42952202     2.32418998     0.03794873    -1.46020870    -0.08185984
Ti      2.93976801     4.65809603     0.00958800     0.01354458    -0.71230177     0.04197533
Ti      2.98883602     9.24605701     4.57876500    -0.12526496     1.20662919     0.33210978
Ti      0.00218799     4.66201601     0.03256700     0.02096170    -0.38393038    -0.36726500
Ti      5.93187800     9.22168999     0.08553700     0.12345285     1.29293267     0.19244174
O       4.45408200     5.58298700     0.84906299    -0.18112863     0.34966322     0.48077359
O       4.48922498     0.96110802     0.82520101    -0.36552384    -0.13869024     0.37128415
O       1.51084201     5.60698598     0.89312700    -0.10283259    -0.33204935    -0.21508829
O       1.48820100     0.89089202     0.91445798     0.01234181     0.07829321    -0.23185703
O       4.47438098     8.45837202     3.72082998    -0.25281230    -0.97791611    -0.32258589
O       4.47718498     3.75284901     3.79592600    -0.18826961     0.13840973    -0.14265360
O       1.45112499     8.41398702     3.76537199     0.41752545    -0.53817657    -0.66596764
O       1.48763298     3.68098600     3.82654801    -0.02193152     0.54409294    -0.00281305
O       2.88360601     6.11226198     3.28805898     0.90697549    -0.26462883    -0.35705283
O       2.97086897     1.46542500     3.18740301    -0.10847977    -0.40517233     0.31114962
O       0.05165902     5.99923697     3.11992498    -0.65144528    -0.08322767     0.86038734
O       0.01783301     1.41495599     3.12306601    -0.06023377     0.24869339     0.31776250
O       2.98127398     7.82179999     1.38873102     0.23765384     0.32359736     0.00071708
O       2.98039200     3.26556699     1.43246398    -0.17060381     0.61719740    -0.30184068
O       5.89300300     7.80739002     1.43934699    -0.11154144     0.73504550    -0.45765833
O       5.88442202     3.36424902     1.50168798     0.61683359     0.12209659    -0.51496619
