# total energy = -19958.52394982 eV

CRYSTAL
PRIMVEC
        7.60600008     0.00000000     0.00000000
        0.00000000     7.60600008     0.00000000
       -1.89786986    -1.89786986     4.85670466
PRIMCOORD
24 1
Ti      3.89576000     6.62984602     1.07557901    -0.49648535     0.11772289     0.03603068
Ti      3.85464801     2.66119402     1.23367902    -1.77345043    -0.09039359    -0.91477905
Ti      0.01599798     6.74917702     1.23817200     0.15075798     0.29477349     0.10245541
Ti     -0.13316798     2.85729500     1.33993702     0.90410434    -0.09296675    -0.72077356
Ti      5.59711322     2.92594024     3.77218880    -0.09271479    -0.73316731     0.68416463
Ti      5.64043723    -0.84784880     3.66391083     0.59522911     0.90609720     0.24602484
Ti      1.89980422     2.81882423     3.69284481    -0.38390955    -1.52889189    -0.42953740
Ti      2.02539624    -0.96686875     3.52020380    -0.62445897     0.59724486     0.65953449
O       3.81113101     4.71756798     0.83175101    -0.06558064    -0.04913483    -0.29790329
O       4.25175500     0.82659899     0.61254098    -1.29583287    -0.37327932     0.09102917
O       7.20455998     4.79420301     0.77289798     1.74620367     0.38111245     1.00397091
O      -0.26090799     1.09389500     0.79265201     1.04182861    -1.70297595    -0.74985737
O       5.73767424     4.85579924     4.11228282    -0.04126108     0.36489135    -0.32528632
O       5.42768924     1.05531422     4.09992081     1.31979428    -1.45179065    -0.01676900
O       1.94198324     4.64966322     3.82196882    -0.08512540     0.76032074     0.55197646
O       2.06435220     0.80029423     4.18041481    -0.80762365     1.58041579    -0.84272051
O       3.74363122     2.81976024     3.24945884     1.28351317     0.42998682    -0.64906109
O       3.86376822    -0.74857779     3.03337582     1.08387311    -1.03313597    -0.15135884
O      -0.13753375     2.67579821     3.56658180     0.39445031     0.79479899    -2.35201056
O       0.17274023    -0.85871079     3.37251483    -1.98776481    -0.12825259    -1.83082488
O       5.79369400     6.77060002     1.45855898     0.13032850    -0.70946327     2.02417602
O       5.65474100     2.73666698     1.30576000     0.86843232     1.05700661     3.00094104
O       1.99693100     6.91112601     1.43016502    -0.75974918    -0.84668027     0.60124601
O       1.90392201     2.36967599     1.69963001    -1.10455944     1.45576095     0.27933221
