# total energy = -4984.46301315 eV

CRYSTAL
PRIMVEC
        3.86970340     0.00000000     0.00000000
       -0.00000721     3.16612079     0.00000000
       -1.93487752    -1.58309657     4.53498791
PRIMCOORD
6 1
Ti     -0.00016796     2.37470859     1.13374710    -0.00295908    -0.00984116     8.53445795
Ti      1.93498663    -0.79168457     3.40124096     0.00295908     0.00984116    -8.53445795
O       0.00003992     0.79152353     0.73871253     0.00273643     0.00540703    -1.41358224
O       1.93477866     0.79150039     3.79627558    -0.00273643    -0.00540703     1.41358224
O      -0.00001872    -0.79151633     3.00620639     0.00031239    -0.00031033     1.79573985
O       1.93483720     2.37454025     1.52878167    -0.00031239     0.00031033    -1.79573985
