# total energy = -19516.36872879 eV

CRYSTAL
PRIMVEC
        5.17600016     0.00000000     0.00000000
        0.00000000     5.50899976     0.00000000
        0.00000000     0.00000000     9.26300011
PRIMCOORD
23 1
Ti      1.85390799     3.20140700     3.27884998    -0.37037783     0.52329631     2.42673636
Ti      3.38415699     2.19961102     5.82692501    -0.78059955     0.06714618    -1.48483114
Ti      4.41266298     2.07934300     1.48107700     1.00951575    -1.63998313    -1.02153823
Ti      0.84874501     3.35301702     7.84296301     1.67927809     0.97682107     2.76405339
Ti      1.79918000     0.51208398     1.32703800    -0.04988148    -0.44587573    -2.60078057
Ti      3.39410002     5.21091300     7.86390700    -1.85412242     0.82678147     1.37247800
Ti      0.73806600     0.65998198     5.78475598    -0.34985939    -1.00980243    -2.80179643
Ti      4.34482500     4.84806198     3.43969901     0.84924469     0.10685586     2.50283076
O       1.87069301     1.91604499     4.69068398    -1.96178381    -0.27050149     0.62669840
O       3.36641802     3.67354799     4.60557598     0.31880483    -0.14481050    -0.00719395
O       0.67050102     2.42784802     0.29660501    -0.01787663    -0.23953229    -0.33497424
O       3.53330502     1.04475200     0.09237800    -0.57985751    -0.89983425    -0.57540102
O       1.62392798     4.84213800     9.02679099     0.96225911     0.89763904     0.84159308
O       4.27367802     0.72528002     4.77404199    -0.99305914     1.87250350     0.59464625
O       0.82004598     4.76391100     4.40716203     1.28964448    -0.91797493     0.62024570
O       0.01224601     3.14376600     2.83818201     0.06614808     0.67862545    -0.66313455
O       5.15841301     2.11736698     6.87749198    -1.42564586    -0.87383833    -1.25073468
O       2.78920698     1.72993102     2.43414301    -0.50549192     1.44149055    -0.61617281
O       2.54741700     3.38656702     7.19158497     1.11086096    -0.55100844    -0.05193450
O       0.13984303     0.56230999     2.34063702     0.40987205     0.73354577    -2.39175778
O       5.12036400     4.85945601     7.10774599    -1.25250154    -0.12328856     0.48628012
O       2.40023000     0.46695902     6.50282099     1.91445698    -0.01282287     1.91022160
O       2.63669502     4.74980101     2.37790798     0.53097105    -0.99543227    -0.34553325
