# total energy = -4990.44928369 eV

CRYSTAL
PRIMVEC
        2.96681267     0.00000000     0.00000000
        0.00000000     4.64855067     0.00000000
        0.00000000    -0.00006033     4.64855067
PRIMCOORD
6 1
Ti      1.48340628     2.32424512     2.32427528     0.00000000     0.00000000     0.00000000
Ti      0.00000000     0.00000000     0.00000000     0.00000000     0.00000000     0.00000000
O       1.48340628     0.90592229     0.90593405     0.00000000    -0.00433128    -0.00433128
O       1.48340628     3.74256795     3.74261652     0.00000000     0.00433128     0.00433128
O       0.00000000     1.41829837     3.23021027     0.00000000     0.00438168    -0.00438168
O       0.00000000     3.23019187     1.41834029     0.00000000    -0.00438168     0.00438168
