# total energy = -4985.95214674 eV

CRYSTAL
PRIMVEC
        3.73595860     0.00000000     0.00000000
        0.00000000     4.32663857     0.00000000
        0.00000000    -0.00006826     5.20732759
PRIMCOORD
6 1
Ti      1.86797936     2.16328498     2.60366380     0.00000000     0.00000000     0.00000000
Ti      0.00000000     0.00000000     0.00000000     0.00000000     0.00000000     0.00000000
O       1.86797936     0.84318476     1.01483143     0.00000000     0.43925591     0.58111504
O       1.86797936     3.48338514     4.19249610     0.00000000    -0.43925591    -0.58111504
O       0.00000000     1.32007263     3.61849638     0.00000000    -0.43913121     0.58133255
O       0.00000000     3.00649733     1.58883121     0.00000000     0.43913121    -0.58133255
