# total energy = -19960.87673706 eV

CRYSTAL
PRIMVEC
        7.60600008     0.00000000     0.00000000
        0.00000000     7.60600008     0.00000000
       -1.89786986    -1.89786986     4.85670466
PRIMCOORD
24 1
Ti      3.75147199     6.72755701     1.27812298     1.80248591    -0.24320999    -0.56089588
Ti      3.84428402     2.90911002     1.17166701    -0.91727430     0.42345056     0.00715178
Ti      0.08041002     6.52647601     1.16240398    -1.70427693     1.17858641     0.61597870
Ti     -0.01095598     2.82100402     1.23103102     1.75990791    -1.03933876    -1.14393590
Ti      5.72110221     2.72155024     3.58824081    -0.60130283    -0.36484662     0.41796254
Ti      5.63256223    -1.05882277     3.61533982     1.16063754     0.10994067     0.34531728
Ti      1.90193622     2.96150423     3.60537483     0.98980027    -0.09782331     0.07572287
Ti      1.85843621    -0.86452375     3.64013579    -0.79866696     0.23479426     0.99907578
O       3.76178301     4.87127101     0.84562900    -0.17599079    -0.51779851    -0.37022357
O       3.72477198     1.07739800     0.97213798     0.56965974    -1.03750325    -1.27543065
O       0.05347902     4.65187602     0.78144102     0.49314317     0.86336108     0.22159035
O       0.03305701     0.81521899     0.68520802     0.12170424    -0.44189489     0.83602767
O       5.67781625     4.57625321     4.02889380     0.60140002     0.94669905     0.10694353
O       5.55531124     0.86077623     4.16351882     0.70998058     0.88745104    -1.36993981
O       1.79757125     4.83659323     4.01976782     0.16708783     0.76995929     0.73082297
O       1.90879224     1.04728522     3.99202882     0.18952457    -0.68755849     1.49946612
O       3.83557720     2.94608522     3.39733779     0.36083775    -0.33565713    -1.62152646
O       3.83986925    -0.80279380     3.27091279    -1.50894347    -0.61264655    -0.30328538
O       0.10921822     2.76736323     3.16231880    -1.79485359     0.02983895     0.74735003
O      -0.06858576    -0.85439276     3.20043480     1.07046300    -0.30245543    -0.09379156
O       5.68123500     6.51487300     1.63637899     0.13759238     0.34649073    -0.46180527
O       5.82291300     2.75055598     1.53783402    -2.58199505     0.15981212     1.35892031
O       1.92399699     6.80823903     1.78738401    -0.70518341    -0.67105946    -1.30200687
O       1.95742400     2.85350201     1.58986098     0.65426295     0.40140874     0.54051165
