# total energy = -19072.80053248 eV

CRYSTAL
PRIMVEC
        7.60600008     0.00000000     0.00000000
        0.00000000     7.60600008     0.00000000
       -1.89786986    -1.89786986     4.85670466
PRIMCOORD
22 1
Ti      3.49611401     6.71845601     1.23429900     1.81514783     2.42692945    -0.36181117
Ti      3.79993002     3.14387300     1.26015699     2.47464374    -2.20068309     0.27645591
Ti     -0.23791597     6.44459599     1.10899697     1.90304025     0.70840115    -1.09448765
Ti      0.28770901     2.62829301     1.11803802    -1.83436092     1.46204499     0.96862002
Ti      5.74644821     2.79421125     3.49393079     0.70345949     1.32810023    -0.65654455
Ti      5.53815124    -1.24860478     3.70365379     0.45362813     1.73500651     0.13580932
Ti      1.99646823     3.03865923     3.63505882    -0.81949496     1.83083799     0.12462476
Ti      1.52405625    -0.59799278     3.72106980     4.30355212    -1.59482117     2.41399397
O       3.54023300     4.97139499     0.76808601     0.07359734    -1.51769936     0.75870788
O       4.04834201     1.19376598     0.87174401    -1.14853972    -0.38744816    -0.63791613
O      -0.03107900     4.45217501     0.44836702     0.57655133    -0.65556367     2.35969328
O      -0.27876200     0.90507402     0.90196198     0.22275018    -1.15292937    -0.63921196
O       5.93556023     4.64250424     4.08341181    -0.23055656     0.03321327     0.66292449
O      -0.12391379    -0.59462478     3.87965782    -4.30619496     0.22600931    -0.59512241
O       1.83808622     4.92516924     4.20930382    -0.06664816     1.01911137    -1.01329759
O       1.97609221     1.23358821     4.13563880    -0.08815262    -0.59670339    -0.30948432
O       3.86507724     3.38270524     3.44087781    -0.78294620    -1.15557297    -1.46063628
O       0.11441124     3.22879420     2.96823283    -0.02252467    -1.41372443     0.64648099
O       5.72262301     6.47647601     1.75834302    -1.56894995    -0.44254924     0.56515620
O       5.67862298     2.99089198     1.70056200    -0.84236159    -0.05720424    -1.90538124
O       1.76219702     6.68443600     1.86328898    -1.07530002     0.15861656    -0.33342952
O       2.04445699     2.60459598     1.66411201     0.25965966     0.24662828     0.09485626
