# total energy = -19959.14327371 eV

CRYSTAL
PRIMVEC
        7.60600008     0.00000000     0.00000000
        0.00000000     7.60600008     0.00000000
       -1.89786986    -1.89786986     4.85670466
PRIMCOORD
24 1
Ti      3.68268498     6.53201501     1.28170598     1.30333767     0.23448701     0.65948409
Ti      3.85965000     2.86411800     1.27567902    -2.01586750     0.21152988    -1.32848050
Ti      0.00354200     6.62811699     1.15391301    -0.93240577     1.11323357     0.76960294
Ti      0.08415199     2.99370303     1.13902498     0.75866546    -1.42812081     0.08173129
Ti      5.80550725     2.86683024     3.52116479     0.61563365     1.16842644     1.03132463
Ti      5.72079422    -0.93708279     3.70787181     0.66984461    -0.70743184    -0.61937615
Ti      1.86964223     2.95395520     3.62636782    -0.22504566    -1.09356488     0.54252122
Ti      1.85419925    -1.01009475     3.72059280    -0.83016735     1.11221670    -0.32934610
O       3.68818599     4.67804998     0.85779701     0.80542150    -0.15506612    -1.28863404
O       3.53172600     0.75703902     0.81988501     0.94095674     3.16260924     0.37514800
O       0.01552802     4.80316499     0.82688898    -0.74119095    -0.82993981    -1.44929539
O      -0.02636800     0.99326998     0.86169900    -0.07532487    -0.43384117    -1.34864644
O      -1.45934475     4.69079225     3.99943080    -1.26268980     0.00422972     0.24623773
O      -1.55673480     0.94013720     4.06750479    -1.69805537     0.53843908    -0.39944751
O       1.55292123     4.72844125     4.21714982     0.63454181    -1.23084899    -1.53088707
O       1.61887920     0.94457822     3.92952384     2.20505242    -1.18946064     1.34271156
O       3.77699521     3.12286720     3.29073180     0.79163010    -1.26361128    -0.95461265
O       3.85462922    -1.22391279     3.36731682    -0.84655223     0.77432271    -0.14280246
O       0.08558024     2.66868823     3.25157782    -1.74176594     1.07843599    -1.72230474
O      -0.03303976    -1.01258278     3.04870582     0.02479161     0.24736747     1.16351846
O       5.65159800     6.59120200     1.52176698    -0.12592188     0.31016540     0.59147890
O       5.66131602     3.06731301     1.48004601     0.88917316    -1.08299225     1.36925538
O       1.85896899     6.44218701     1.68002098     0.46346234     0.30888294     0.89267835
O       1.87942899     3.08695099     1.45011998     0.39247647    -0.84946837     2.04814025
