# total energy = -19519.12747659 eV

CRYSTAL
PRIMVEC
        7.60600008     0.00000000     0.00000000
        0.00000000     7.60600008     0.00000000
       -1.89786986    -1.89786986     4.85670466
PRIMCOORD
23 1
Ti      3.75518898     6.68540699     1.23418502     0.69528080     0.33434946    -0.25023682
Ti      3.83858298     2.92333399     1.16126000    -0.23033262    -0.53942459     1.42185683
Ti      0.04469500     6.62590201     1.27328698    -0.79622261     0.56971476     0.16850554
Ti     -0.02773503     2.87727800     1.02791998     0.43441324    -0.75946405     1.22362059
Ti      5.65060421     2.86869924     3.64679581    -1.25673821    -0.18174338    -0.47570054
Ti      5.68574422    -1.04550777     3.59931982     0.49481284     0.42061232     0.06740921
Ti      1.93502224     2.86414620     3.72364282     1.37097365     0.38559311    -1.47941048
Ti      1.93465324    -0.95540979     3.68780382    -1.09073744    -0.28700747     0.20252124
O       4.07539800     4.81452998     0.79470998    -1.00832121    -1.11027166     0.35109944
O       3.76496998     0.97729799     0.79854900    -0.11011833    -0.54016609     0.18360126
O      -0.26725197     4.75492901     0.79477898     1.04397626     0.25929842    -0.11441310
O       0.01661902     0.85100301     0.77358702     0.19718852     0.24131226    -0.42123813
O       5.88034222     4.73063025     3.90996380     0.15137350    -0.28825137     0.40948278
O       5.66629421     0.97495923     4.03941882     0.55510883    -0.45916423    -0.54207745
O       1.73315821     4.75594323     4.04531782    -0.24794751    -0.06742978     0.51582751
O       1.89141120     0.95605723     4.04250080    -0.45107451     0.80679730     0.48181797
O       3.80589025     2.88072622     3.35449481    -0.04341386     0.32490066    -1.37734176
O       3.73229820    -0.91256580     3.29619979     1.18746109    -0.14362008    -0.30345765
O      -0.01737876    -0.79239075     3.18359384     0.07731104    -0.27936023     0.00816634
O       5.65906998     6.63404202     1.64266398    -0.06639182     0.43127520     0.22078997
O       5.76265601     2.64500999     1.63376099     0.06481933     0.48945749     0.37194415
O       1.91496298     6.41617499     1.69921699    -0.22039942     0.19376663    -0.63227230
O       1.88697098     2.88589401     1.66278102    -0.75102131     0.19882477    -0.03049484
