# total energy = -19068.61709979 eV

CRYSTAL
PRIMVEC
        5.93400000     0.00000000     0.00000000
        0.00000000     9.29699974     0.00000000
        0.00000000     0.00000000     4.64899994
PRIMCOORD
22 1
Ti      4.06583799     7.36551098     2.20547298     0.24707128    -2.45653906     0.23521772
Ti      4.44081003     2.19819801     2.36757601    -1.77651493     1.49006411    -0.16577657
Ti      1.17900199     6.61515902     2.54490500     1.03946320     1.81624106     1.38567137
Ti      1.73339200     2.79991800     1.57365302    -0.86057246    -1.58447891     1.83503557
Ti      3.13348599     4.56752199     4.21467899    -0.43132123    -1.05448719     2.48995827
Ti      3.04170200     0.15890002     0.15324597    -0.75669265     0.85378012    -1.66030771
Ti      5.92343403     4.67443099     0.18021301    -0.51275838    -2.82124915     0.74671626
Ti      0.10784400     8.88126598     0.17645802     1.61648272     0.48661899     0.46725164
O       3.82408500     5.56200798     0.98817099     1.76193471     0.91969885     0.55244183
O       4.90038798     1.00485701     1.16498398    -0.55328695    -2.48037319    -1.90282068
O       1.56623702     0.99197202     0.89505903    -1.43657100     0.80776584    -0.62064654
O       4.46311601     8.57933199     3.89136000     0.66137077    -1.00013842    -0.85893672
O       4.64029699     3.53356802     3.82950399     1.26323050     0.15905827    -1.89668268
O       1.57804498     8.07465401     3.82372098    -1.02378718     1.74794534     1.13242867
O       1.55900301     3.50077199     3.76573400    -0.52682643     1.25998063    -0.16434420
O       3.13110702     6.09661802     3.34338298    -1.55008627     2.27015869    -2.58383751
O       2.88788102     1.14532002     3.12493200     1.61315752     1.76616109     0.02128540
O       5.85235298     6.17083799     4.00346598     1.06947544     1.98929282    -2.71309283
O       2.61300000     8.07390797     1.43461498     1.04590973    -1.18343346     0.65031116
O       3.42525898     3.09058601     0.93493200    -0.94438557    -1.17732066     3.56634561
O       5.90044900     8.10190002     1.80448299    -0.28893631    -2.46129174    -0.29540315
O       5.89960697     3.26082302     1.61414900     0.34364298     0.65254622    -0.22081465
