# total energy = -4988.40372604 eV

CRYSTAL
PRIMVEC
        3.70650577     0.00000000     0.00000000
        1.25872119     3.48623091     0.00000000
       -2.48264729    -1.74313920     4.80672203
PRIMCOORD
6 1
Ti      0.94393403     2.61480691     1.20168056     0.00021520    -0.00021520     0.00000000
Ti      1.53864499    -0.87171564     3.60504157    -0.00021520     0.00021520     0.00000000
O       0.31471891     0.87155293     0.78297579    -0.00003060     0.00024425    -1.05485511
O       2.16785994     0.87153821     4.02374644     0.00003060    -0.00024425     1.05485511
O      -0.31468885    -0.87153187     3.18633680     0.00024425    -0.00003060    -1.05485511
O       2.79726763     2.61462297     1.62038543    -0.00024425     0.00003060     1.05485511
