# total energy = -19076.06680343 eV

CRYSTAL
PRIMVEC
        7.60600008     0.00000000     0.00000000
        0.00000000     7.60600008     0.00000000
       -1.89786986    -1.89786986     4.85670466
PRIMCOORD
22 1
Ti      3.75500102     6.49001501     1.06146802     0.41094908     0.51709120     1.44933293
Ti      3.78620401     2.82538598     1.19390902    -0.03896020    -0.43992954     0.76591109
Ti      0.03711099     6.72092298     1.08048602    -0.74354711    -0.96709922     3.26935171
Ti     -0.02908501     2.93721298     1.21991798    -0.37378429     0.70470930    -0.25416855
Ti      5.75826421     2.85948722     3.60047179    -0.91602192     0.21419303     0.04486037
Ti      5.88393624    -0.90208475     3.75100880    -0.74358362     0.65395622    -1.48669930
Ti      1.93819423     2.75769225     3.55775883     0.17567789     0.35353119     0.13117053
Ti      1.91575823    -0.97736778     3.75185681    -0.53894507    -0.45189263     0.95509113
O       3.50389599     4.61954499     0.70989102     0.45382816     1.35846163     0.00474394
O       3.70036601     0.90017300     1.04887302     0.28381750    -0.46039733    -1.34065519
O       0.08262701     4.78648702     0.70064999    -0.20283903    -0.10867671     0.64582896
O      -0.15000498     1.05203501     0.80389898     0.23784976    -0.44664244     0.43102684
O       5.85447122     4.81296123     4.20207081     0.27725398     0.78780224    -3.00499773
O       5.67487524     1.06322521     3.91939083     0.24494600    -1.89829630     0.23214910
O       1.81784720     4.67134721     4.04041584     0.08532338     1.09989237     0.37524313
O       1.85707220     0.87648120     3.95008084     0.25445523     0.01200269     0.71061435
O       3.80391822     3.06693423     3.28451879    -0.42424015    -0.65192942    -0.42129289
O      -0.04076480     2.94539623     3.13004380     0.18547945    -0.19023214     0.45399219
O       5.65076502     6.36391302     1.86464902     0.09979638     0.86347086    -0.30333784
O       5.62911199     3.00793303     1.59040899     0.23941556    -0.09580397    -0.29138760
O       1.81220501     6.61849199     1.95318101     0.25377646    -0.07497520    -1.84160012
O       1.82555801     2.94099602     1.67002302     0.77935257    -0.77923507    -0.52517707
