# total energy = -19076.10564443 eV

CRYSTAL
PRIMVEC
        7.60600008     0.00000000     0.00000000
        0.00000000     7.60600008     0.00000000
       -1.89786986    -1.89786986     4.85670466
PRIMCOORD
22 1
Ti      3.78131198     6.47875501     1.06254701    -0.15968202     1.19279408     1.87643138
Ti      3.78047799     2.85903800     1.22027602    -0.50548010    -0.83055328    -0.43638065
Ti      0.01990998     6.74739301     1.12978401     0.32651017    -0.48972849     0.61949494
Ti     -0.05713998     2.96896298     1.22272299     0.74788174    -0.67798550     0.40471570
Ti      5.73739721     2.88206324     3.66641082     0.35458997    -0.40780719    -0.40175482
Ti      5.82703820    -0.94568679     3.70614081    -0.42402546     0.71016261    -0.91004513
Ti      1.95678322     2.83134822     3.61306880    -0.68781303    -0.97068539    -1.14266577
Ti      1.89957821    -1.01070876     3.78305980    -0.46762393     1.10108871    -1.43984941
O       3.53864399     4.66452997     0.67228498     0.69130536     0.72168527     0.81728355
O       3.68010000     0.85140698     0.81634698     0.51711280     0.56295970     0.66111289
O       0.06487798     4.81068598     0.79882502    -0.24796679    -0.43072730    -0.83362986
O      -0.08913298     0.97921001     0.89376201     0.20355688    -0.05866077    -0.65714927
O       5.79557120     4.80114624     3.97386481     0.27483072    -0.30182448     1.14330906
O       5.73798423     0.95630420     3.81683379    -0.20828283     0.13051824     1.23198233
O       1.84117122     4.69840425     4.04369081     0.09519950     0.43577361    -0.52915045
O       1.79183322     0.91589221     4.10235979     0.79416444    -0.64045766    -0.60757453
O       3.83129520     3.11273124     3.31590784    -0.01415161    -1.02876663    -0.80436452
O       0.05164622     2.81925223     3.21009281    -1.21395632     0.49007507    -0.68916029
O       5.59913902     6.30432502     1.84532198     0.17896324     1.27902582    -0.58231317
O       5.69826403     2.87778998     1.49423500    -0.59973832     0.30131772     0.77506088
O       1.91789499     6.66501202     1.75564300    -0.42678914    -0.21819341     0.72337860
O       1.86192899     2.97033800     1.56904198     0.77139525    -0.87000995     0.78126778
