# total energy = -19071.76084708 eV

CRYSTAL
PRIMVEC
        7.60600008     0.00000000     0.00000000
        0.00000000     7.60600008     0.00000000
       -1.89786986    -1.89786986     4.85670466
PRIMCOORD
22 1
Ti      3.70273498     6.53742098     1.41761002     2.85054251     1.33620487    -0.49780612
Ti      3.64072202     2.83306000     1.13936402    -0.45038236    -2.42118638     1.16224216
Ti      0.00029798     6.81424000     0.98363700    -0.77605384    -1.40025133     2.53809062
Ti     -0.23200602     2.71255099     1.00673299    -0.47437077     1.44156357     0.43299553
Ti      5.63577020     3.12445622     3.49820284     0.35792289    -1.42269192    -0.56342610
Ti     -1.20323275    -0.56235677     3.88426579    -1.00240150    -0.51622886    -2.49084864
Ti      1.70609222     2.75434224     3.72447183     1.14210913    -2.17280769    -0.11087218
Ti      2.12408224    -1.22050976     3.80901483    -1.47263511     0.78639225     1.95293047
O       3.93733301     4.58744102     0.84398199    -1.61652181     0.68980152     0.59003986
O       3.93294698     0.81454100     0.96677498    -0.45753389    -1.59614375     0.25219086
O       7.32820399     5.05784499     0.45370398    -0.12456999     0.10383635     2.22706724
O       6.97854001     0.96980399     0.45950202     0.17160680     0.93917317     0.77667399
O      -1.46628676     5.08233420     4.08850482     1.30119106    -1.04369883    -2.01131536
O       5.56307025     1.22176824     3.91869084     0.31145970    -1.15449851     0.31578532
O       2.04456722     4.40296422     4.35731083    -0.55864127     3.87566949    -1.63790928
O       2.09995922     0.70359121     4.18449779    -0.43317834     0.17552696    -1.76668508
O       3.47058222     2.71615220     3.10086782     0.86382259     0.81690380    -0.83096517
O      -0.06678677     2.53182421     3.00635782     0.73324958     1.20155537     1.00303168
O       5.77218400     6.77540098     2.12398900     0.87872960    -0.17945433     0.04805059
O       5.68139100     3.15396901     1.58823402    -1.59645742    -0.22822046     0.38007784
O       1.93153400     6.40649300     1.97068000    -1.02483079     0.41888428    -1.45882596
O       1.61494498     2.45826000     1.06773401     1.37694324     0.34967093    -0.31052253
