# total energy = -19515.67025933 eV

CRYSTAL
PRIMVEC
        5.17600016     0.00000000     0.00000000
        0.00000000     5.50899976     0.00000000
        0.00000000     0.00000000     9.26300011
PRIMCOORD
23 1
Ti      1.74019600     3.31893902     3.48969499     0.06700040    -1.57890192     2.57216315
Ti      3.41228699     2.31477301     5.86370500    -0.87343261     0.13041309    -3.70539940
Ti      4.40067198     2.02743701     1.59609400    -0.75742953    -2.06279786    -1.57690161
Ti      1.06862303     3.18340402     7.85975798    -1.69554700     0.44781975     1.45465152
Ti      2.05800901     0.28392302     1.30157902    -1.66779913     1.41177861    -2.56267552
Ti      3.34934999     5.37349599     7.71825498     0.95376933    -1.39467100     3.08201618
Ti      0.58941598     0.47985200     6.00979602     0.20959666     0.31845978    -3.61105582
Ti      4.42556602     4.91722402     3.28914300     0.11970906     0.85173223     3.31999835
O       1.42194700     2.27544000     4.90441602     0.50012783    -1.07808375     0.13072393
O       3.32906101     3.63374799     4.51022099     1.75271756     0.95515335     0.17222952
O       0.19379900     2.44106100     0.14119603     1.90676938     1.49150238    -1.29853125
O       3.51470401     0.89343599     0.21414898    -0.11704206    -0.00370882    -1.17241473
O       1.92571401     4.94957199     8.82649201    -2.00055194    -1.69762394     0.39806939
O       4.32874103     0.89658501     4.61824300    -1.52611356     0.00447449     0.31688884
O       0.84034998     4.85299502     4.41747802     0.88535687    -0.57036500    -0.00898138
O       0.05342103     3.24659699     2.65625802    -0.56087839     0.70778845    -0.09876794
O       4.94730298     2.00477002     6.79814000     1.08624084    -0.02266403     1.75031229
O       2.44182899     1.85530401     2.21660301     0.96014721     1.04557754     0.59065409
O       2.83269201     3.36571903     7.30223001     0.01356386     1.36645236     0.20321441
O       0.10075101     0.33894401     1.90009998     0.92374937     0.70224207    -0.16786482
O       5.14800102     4.62808199     7.20284301    -0.51265733     0.59973472     0.03560002
O       2.35838499     1.00877699     6.75798402    -1.21154514    -0.79923003    -0.33762659
O       2.72303902     4.51341600     2.25126898     1.54424833    -0.82508274     0.51369683
