# total energy = -19518.09367592 eV

CRYSTAL
PRIMVEC
        7.60600008     0.00000000     0.00000000
        0.00000000     7.60600008     0.00000000
       -1.89786986    -1.89786986     4.85670466
PRIMCOORD
23 1
Ti      3.72770600     6.63749602     1.08483998     2.03294708     0.38709207     2.11465214
Ti      3.79917197     2.81422198     1.18439701     0.72616285    -0.37867273     1.19364743
Ti      0.05393703     6.69763299     1.22334001    -1.87232250     0.88711088    -1.14027388
Ti      0.02281299     2.92455797     1.13106901    -0.54352627    -1.18732842     1.19158669
Ti      5.70393824     2.90950124     3.71984280    -1.42407003     0.63087542    -0.77982333
Ti      5.62917422    -0.89074279     3.56405482    -1.11882958    -0.54804318     0.00286421
Ti      2.04834623     2.82142424     3.75959581     1.22656039    -1.19556958    -1.32758652
Ti      1.84041524    -1.01327479     3.56167283     1.52523450     0.51294118     1.06655775
O       4.01515302     4.68472602     0.78069001    -0.99645248    -0.28689485     0.79544562
O       3.68850302     0.94871998     0.84664899    -0.20845998    -0.57798266    -0.66827752
O      -0.27595202     4.78516799     0.78937900     1.49842894     0.38327578     0.61492660
O       0.06448199     0.94807698     0.82004402     0.26911207     0.26658236     0.13453251
O       5.68173824     4.86027423     4.10095181     0.73678896    -1.31149578    -0.63194345
O       5.41159522     0.98586420     4.17358980     1.11623302    -0.48271040    -1.67752459
O       2.01139320     4.65935324     4.09947879    -1.19274266     1.70659298    -1.17303720
O       2.12844822     0.86326722     4.07081480    -1.11071338    -0.02436430    -0.06385954
O       3.88273123     2.92013024     3.39733980    -0.72661716     0.05963676    -1.65218276
O       3.73211220    -1.09851376     3.18610679     0.07743497     0.32246351     0.14586234
O      -0.07951777    -0.90541079     3.14181783     1.24076111     0.10238677     0.83645833
O       5.62858699     6.67927498     1.57936199     0.19586157     0.44016403     0.61105169
O       5.77599900     2.73074802     1.73059598     0.19562117     0.06778227     0.57397303
O       1.93204498     6.46976101     1.58330701    -1.44097299    -0.10362707     0.12784712
O       1.88192300     2.87036102     1.74659698    -0.20643961     0.32978575    -0.29489690
