# total energy = -19518.36803414 eV

CRYSTAL
PRIMVEC
        7.60600008     0.00000000     0.00000000
        0.00000000     7.60600008     0.00000000
       -1.89786986    -1.89786986     4.85670466
PRIMCOORD
23 1
Ti      3.80781301     6.68854802     1.14002999     0.72324953    -1.34872229    -0.01259018
Ti      3.86471402     2.76890901     1.18271099    -0.65768843     1.92621130     0.55519548
Ti      0.12658200     6.70919599     1.24021399    -1.25287795    -0.56382719    -1.05176387
Ti     -0.02121498     2.81298201     1.12812901    -0.17071051     0.51025695     1.52106879
Ti      5.53409425     2.81557921     3.74760683     0.07784609     1.01855575     1.13268526
Ti      5.71505122    -0.93967380     3.49628081    -0.12850713    -0.69509517     0.96285844
Ti      1.96944220     2.89238723     3.63259581    -0.13815699    -0.43192004     1.03971954
Ti      1.95574820    -0.89936076     3.60502779    -0.42099002    -0.35623213     0.13733964
O       3.88832998     4.66502999     0.72476301    -0.34028126     0.22792247     1.47055483
O       3.69894601     0.96664501     0.71052402     0.08940655    -0.56281855     0.41555470
O      -0.18585901     4.74505498     0.94297603     0.69049829    -0.17651787    -0.06631392
O       0.07042000     0.98564401     0.75264600     0.03413115    -1.51811331     0.24366894
O       5.63849721     4.67664623     4.10837881     0.92995936     1.48359212    -0.42921421
O       5.62991322     0.95675824     4.16559182     0.26872743    -0.20178951    -1.94555166
O       1.84863924     4.70620824     4.11548381    -0.45221608     1.26624949    -1.25181429
O       1.84556524     0.96257622     4.11318184    -0.00113848    -0.45438352    -0.90828187
O       3.75890820     2.92643825     3.46053981    -0.09009689    -0.28422630    -1.35864855
O       3.80334321    -0.87590477     3.25927883    -0.33842004    -0.06785684    -0.40465579
O      -0.01351778    -0.76893778     3.23184581     0.53171924    -0.50306069    -0.78587983
O       5.65070401     6.69247902     1.51026102     0.69167432     0.26346927     1.22154339
O       5.67402601     2.65957400     1.88026398     0.99161726    -0.11694461    -1.35421828
O       1.96510898     6.44331400     1.48900202    -0.93096338     0.55860836     1.32994114
O       1.82706198     2.81660000     1.75017702    -0.10678258     0.02664281    -0.46119797
