# total energy = -19517.04523267 eV

CRYSTAL
PRIMVEC
        5.17600016     0.00000000     0.00000000
        0.00000000     5.50899976     0.00000000
        0.00000000     0.00000000     9.26300011
PRIMCOORD
23 1
Ti      1.96256401     3.19201897     3.40403400    -1.08085592    -1.52122563     1.37900398
Ti      3.28176098     2.29110000     5.84255198    -0.89747243    -0.32275481    -1.49823405
Ti      4.33348902     2.18292902     1.33377099    -0.18291735    -0.55586371     1.63043868
Ti      0.72537702     3.47230898     7.90029698    -0.10121563    -1.40350917     0.88073403
Ti      2.11112898     0.06275100     1.47848800    -1.18347048     2.95974270    -1.59043975
Ti      3.28077602     5.03793300     7.98681302    -0.34758165     0.02724856     0.78946266
Ti      0.74339699     0.55817701     5.87999498    -0.30246135     0.51910489    -2.19761576
Ti      4.63125801     4.99932899     3.40034902     0.31944477     0.08984852     1.33682142
O       1.68978398     1.78727399     4.78348198    -0.31803427     1.20960730    -0.59712042
O       3.51555302     3.53402300     4.37271899     1.08360468     0.24120633     1.36856735
O       4.31302197     3.25130900     9.18278202     0.91041408     1.32848384    -1.60893885
O       3.34561802     0.88944398     0.24814201     0.71176467    -0.78917264    -0.58633438
O       1.66284701     4.80802602     9.03237101    -0.48461867    -1.32257930     0.89289072
O       4.22624701     0.70982302     4.86331202     0.56936561    -0.76439722    -1.29503969
O       1.09330401     4.66419500     4.43690999    -0.96352744     0.65880635     0.11703306
O       0.26274698     3.46920001     2.45507499     0.93776189    -0.60827207    -0.63710906
O       4.87025499     2.14196801     6.65189001     2.50372885     0.45547495     2.06310511
O       2.88896102     1.70455999     2.50674200    -0.00598373    -0.58742041    -1.00082979
O       2.33381900     3.67311698     6.89350298     0.55526104    -1.20787977     0.44199105
O       0.39414201     0.74426902     2.08469198    -0.51785251    -0.44211678    -0.25477019
O       5.12842501     4.88197002     7.22756400    -1.71355579     1.74369453    -0.93787399
O       2.46601700     0.69057599     6.79831103     0.02954713     0.45523481     1.00727143
O       3.06831199     4.26135798     2.14910200     0.47865500    -0.16326151     0.29698721
