# total energy = -19960.70010475 eV

CRYSTAL
PRIMVEC
        5.93400000     0.00000000     0.00000000
        0.00000000     9.29699974     0.00000000
        0.00000000     0.00000000     4.64899994
PRIMCOORD
24 1
Ti      4.42129402     6.87038603     2.15446500     0.91089025     0.71792400     0.47671227
Ti      4.46929199     2.38203001     2.28957999    -0.74789305    -0.18763249    -0.36153041
Ti      1.51320298     6.97506501     2.33663401    -0.94268864     0.24291740    -0.01308049
Ti      1.44713700     2.29146899     2.43849502     0.80503558    -0.22827702    -0.70171551
Ti      2.96131002     4.68311600     4.63472301    -1.01790218    -0.47923195     0.79714126
Ti      2.98477300     0.09343900     0.07833601     0.19761892    -0.24768140    -0.92049924
Ti      5.92352198     4.60234900     4.54329499     1.00355439     0.15955449     0.24145162
Ti      5.93202400     0.01376898     0.07807502    -0.20380165    -0.74033606    -0.71848810
O       4.54742400     5.56922500     0.79066701    -1.04404619    -0.31747968     0.41276146
O       4.46370700     0.81216500     1.07936802    -0.02187573     0.89970415     0.05191291
O       1.50117902     5.60065501     0.88780501     0.52185752    -0.45533534    -0.58999460
O       1.52880101     0.79114899     1.11727802    -0.92473025     0.44562402    -0.40705592
O       4.40153100     8.54265302     3.82905800     0.51743779    -0.83936085    -0.73210518
O       4.52298501     3.71121102     3.71378901    -0.67290011     0.56886038     0.33056866
O       1.43763901     8.48668099     3.73281399     0.26284757    -0.44547875    -0.23536247
O       1.54235001     3.72804600     3.77289203    -0.27206318     0.45524252     0.00403740
O       3.01943898     5.94644498     3.10848797    -0.50707341     0.48742915     0.39610404
O       3.00368998     1.53130302     3.26646098    -0.24017172    -0.53375247     0.81270441
O       5.89867102     6.07522497     3.19477699     0.38716097    -0.23087487     0.18144976
O       5.85617898     1.50584700     3.30871700     0.39339153    -0.30917938     0.38833828
O       2.95080501     7.86610700     1.36939399     0.07898252    -0.64283954     0.71288490
O       2.82364800     3.26036798     1.42596298     1.44727991     0.16887860    -0.37087971
O       5.89964502     7.68784798     1.31570700     0.58950429     1.36310324     0.18632252
O       0.04741301     3.20148701     1.37922203    -0.52041564     0.14822210     0.05832241
