# total energy = -19076.36824026 eV

CRYSTAL
PRIMVEC
        7.60600008     0.00000000     0.00000000
        0.00000000     7.60600008     0.00000000
       -1.89786986    -1.89786986     4.85670466
PRIMCOORD
22 1
Ti      3.63665201     6.65875301     1.28074801     0.70353430    -0.90871895     0.39895463
Ti      3.84587202     2.89270902     1.30949102     0.41175924     0.87499455    -1.17333210
Ti      0.08048098     6.66344999     1.03971402    -0.66301267    -0.62941143     0.41299825
Ti      0.13714300     2.85098001     1.11080099    -0.87013877     0.37789600    -0.87607930
Ti      5.79927423     2.83910421     3.41719284    -0.29296600     0.07506853     1.26573861
Ti      5.98804424    -0.92615777     3.57503281    -0.01732153    -0.16302214    -0.60064849
Ti      1.90995622     2.81532023     3.60148183     0.06042275    -0.54242943     1.36599908
Ti      1.39160922    -0.96241175     4.01729783     0.29260322     0.64263333    -1.91072219
O       3.56452901     4.76423501     0.88174800     0.54132103    -0.26260049     0.13823876
O       3.92261601     0.96636598     0.97365000    -0.67292942    -0.46360350     0.19701445
O       0.21576398     4.77882898     0.60984000     0.04784053    -0.66175720     0.52564064
O      -0.02809402     0.96678001     0.63520601     0.36141316    -0.15865872     0.92016782
O       5.72143924     4.74762223     3.91838979     0.31259432     0.78451303    -0.38975059
O       5.58794020     0.95655424     3.92105483     0.70069143    -0.35738733    -0.16952935
O       1.77078721     4.74083622     4.29747480    -0.21586322     0.65656923    -1.61994215
O       1.85089623     0.97365423     4.07684980    -0.12731131    -0.56588742     0.33977784
O       3.87219023     2.94280321     3.19085981    -0.67407948     0.02197806     0.72794308
O       0.06275725     2.77138021     3.08381080    -0.23911551     0.41653326     0.15692451
O       5.73686401     6.58594902     1.64845699     0.11636123     0.08743194     0.69100300
O       5.75059500     2.86886699     1.44874798     0.62383008     0.35316815     0.64677898
O       1.79013901     6.63354698     2.08428298     0.27360970     0.19534195    -0.30465553
O       1.97049500     2.66802401     1.69417001    -0.67324361     0.22734860    -0.74251970
