# total energy = -19960.29760059 eV

CRYSTAL
PRIMVEC
        7.60600008     0.00000000     0.00000000
        0.00000000     7.60600008     0.00000000
       -1.89786986    -1.89786986     4.85670466
PRIMCOORD
24 1
Ti      3.84545001     6.54393198     1.18518199    -0.00129866    -0.12315126     0.48064863
Ti      3.83383298     2.63614500     1.16422001    -0.43718797     0.59443233     0.65473115
Ti     -0.03694298     6.72633302     1.15614799    -0.17725449    -0.16016924     0.72983516
Ti     -0.03945699     2.84452600     1.21144601     0.73701702     0.51295353     1.04327897
Ti      5.66334023     2.87078822     3.62558284    -0.95944478     1.45140858     0.59195276
Ti      5.68626223    -0.72846778     3.67540583     0.34246130    -2.07494633    -0.65704720
Ti      1.87537020     2.72792624     3.68654781     0.75697625     0.68572889    -1.02617650
Ti      1.96261322    -0.99634276     3.62696383    -0.20881428    -0.59270815    -1.02807861
O       3.94499100     4.62486999     0.72067898    -0.70731743     0.03459652     0.92816756
O       3.94394402     0.77526198     0.75979698    -0.74663218     1.81733301    -0.09932895
O      -0.05262800     4.85135600     0.83603401     0.46632732    -0.35866594    -0.48690053
O      -0.06102202     1.00873201     0.85842102     0.63127779     0.54805707    -0.70838675
O       5.37060922     4.90652220     4.07554083     1.37581272    -0.91471811     0.08158113
O       5.47438824     1.05813225     4.16337081     0.70297817     0.27307928    -0.41521635
O       2.11454223     4.65081624     4.06263181    -0.91796953     0.31372972    -0.43637936
O       2.08394520     0.81640720     4.00701179    -0.79472905     1.33181471     1.32326270
O       3.81183122     2.81417425     3.25597280     0.27452810    -0.19718569    -1.17063245
O       3.83580924    -0.73394879     3.12618880    -0.61943529    -0.88705740     0.64331750
O      -0.02991778     2.84732022     3.21690480    -0.34144751     0.15900736     0.57094092
O      -0.02289279    -0.61973075     3.20652981    -0.13455385    -1.04713717     0.71122885
O       5.67509501     6.74647801     1.74203002     0.74935164    -0.52593143    -0.89758325
O       5.69300300     2.63713699     1.52230399    -0.36350321     0.78950380     1.45911727
O       1.90851199     6.87762200     1.74318098    -0.07206548    -1.39453525    -1.73368445
O       1.89043498     2.81503501     1.65726202     0.44492288    -0.23543883    -0.55864822
