# total energy = -19959.73904777 eV

CRYSTAL
PRIMVEC
        5.38446536     0.00000000     0.00000000
        0.28638551     5.72353902     0.00000000
        0.00000000     0.00000000     9.64002243
PRIMCOORD
24 1
Ti      2.12132143     3.39176378     3.57637956     0.16617817    -0.59268424     0.43681593
Ti      3.54952922     2.33177502     6.06364298    -0.16617817     0.59268424    -0.43681593
Ti      4.76042726     2.33177698     1.24359318    -0.17786050     0.06172784    -0.11920333
Ti      0.91042345     3.39176204     8.39642947     0.17786050    -0.06172784     0.11920333
Ti      1.97812879     0.52999449     1.24363182     0.16617817    -0.59268424    -0.43681593
Ti      3.69272186     5.19354448     8.39639083    -0.16617817     0.59268424     0.43681593
Ti      0.76723080     0.52999237     6.06360429     0.17786050    -0.06172784    -0.11920333
Ti      4.90361991     5.19354660     3.57641825    -0.17786050     0.06172784     0.11920333
O       1.80505840     2.01535530     4.91922966     0.64960257     0.67836242    -0.12094062
O       3.86579224     3.70818350     4.72079288    -0.64960257    -0.67836242     0.12094062
O       1.08888920     2.01537840     0.09924943    -0.46446893     0.32195417     0.18814697
O       4.58196150     3.70816046     9.54077284     0.46446893    -0.32195417    -0.18814697
O       3.72259960     0.84641405     0.09921817    -0.64960257    -0.67836242    -0.12094062
O       1.94825105     4.87712476     9.54080409     0.64960257     0.67836242     0.12094062
O       4.43876885     0.84639100     4.91926097     0.46446893    -0.32195417     0.18814697
O       1.23208174     4.87714791     4.72076157    -0.46446893     0.32195417    -0.18814697
O       0.36982597     3.48138076     2.60401060     0.10704869     0.02986466     0.18908362
O       5.30102473     2.24215805     7.03601199    -0.10704869    -0.02986466    -0.18908362
O       3.00006029     2.24210472     2.21603132     0.31085214     0.23404324    -0.10541990
O       2.67079041     3.48143408     7.42399105    -0.31085214    -0.23404324     0.10541990
O       0.22663333     0.61961130     2.21600056     0.10704869     0.02986466    -0.18908362
O       5.44421737     5.10392750     7.42402181    -0.10704869    -0.02986466     0.18908362
O       2.52759777     0.61966463     7.03604270    -0.31085214    -0.23404324    -0.10541990
O       3.14325293     5.10387418     2.60397978     0.31085214     0.23404324     0.10541990
