# total energy = -19959.97663074 eV

CRYSTAL
PRIMVEC
        7.60600008     0.00000000     0.00000000
        0.00000000     7.60600008     0.00000000
       -1.89786986    -1.89786986     4.85670466
PRIMCOORD
24 1
Ti      3.79700901     6.72960800     1.33327198    -0.65193302    -1.50994568    -1.15906325
Ti      3.74442599     2.85466700     1.16760198     0.77605461     1.97463470     2.01659512
Ti     -0.02323300     6.48755401     1.20417998     0.41771366    -1.38820802    -0.74988437
Ti      0.09048698     2.66733698     1.19351500    -0.85147306     2.70604029     0.23920113
Ti      5.73322121     2.78325924     3.51964081     0.10513013     0.34750735     0.39232915
Ti      5.68357422    -1.07626477     3.65396981     0.26163247    -0.20819696    -0.97786597
Ti      1.94295323     2.94468523     3.68615284    -0.38726690     2.48483920     0.35135758
Ti      1.86152423    -0.79147978     3.75530281    -0.25277630    -3.03841154    -2.02697261
O       3.83616898     4.79378898     0.76606202    -0.12874315    -0.25330543    -0.20832577
O       3.79572502     0.96461901     0.88860100    -0.15473136     1.50759724     0.30966661
O       0.09251802     4.55122598     0.63746898    -0.49174783     1.17381136     0.53320328
O       0.13419702     0.77355400     0.68228299    -0.23361155     1.89290727     1.06573217
O       5.68100824     4.64209122     4.05715181    -0.18473306     1.25238224     0.06611877
O       5.89748524     0.94251522     3.80117883    -0.79262666    -1.77604262     0.89558190
O       1.73147225     4.86059422     4.24942879     0.30907680    -0.27413498    -0.71565038
O       1.79092420     1.03305120     4.09136481    -0.17589823     0.13735841    -0.85925657
O       3.80523920     3.20031023     3.08707879    -0.87518379    -1.36568489     0.98223711
O       3.68523625    -0.94811275     3.36070883     1.35691588     0.36673046     0.10535099
O      -0.03933179     3.20907822     3.10465980     1.16900596    -1.77057696    -0.16010188
O      -0.10240178    -1.00497078     3.08438279     0.90626638     0.08355780     1.44945917
O       5.66837699     6.43240300     1.56438099    -0.14647657     0.57844006     0.50166715
O       5.70713600     2.89012102     1.59724803     0.22235345    -0.95499806    -1.34363304
O       1.90368198     6.66731902     1.74293798    -0.53001383    -0.14194680     0.01652243
O       1.87505502     3.14481102     1.69399401     0.33306546    -1.82435366    -0.72426820
