# total energy = -19961.08560724 eV

CRYSTAL
PRIMVEC
        5.93400000     0.00000000     0.00000000
        0.00000000     9.29699974     0.00000000
        0.00000000     0.00000000     4.64899994
PRIMCOORD
24 1
Ti      4.43561800     6.92285898     2.34169199     0.70745575     0.90766840     0.00908243
Ti      4.47803701     2.32954499     2.33949098     0.02956127     0.15854894    -0.31880303
Ti      1.45869000     6.96911701     2.30991500    -0.55933522     0.37512409    -0.26323401
Ti      1.53988601     2.28413603     2.33960698    -0.25213558     0.66220638     0.04548077
Ti      2.98422599     4.64370600     4.57193200    -1.74708196     0.23058330     0.21813119
Ti      2.96648199     0.01811601     0.02831199     0.07545059    -1.22196608    -0.19540237
Ti      5.87757097     4.64656001     0.06425699     1.71573943     0.22086684    -0.17219378
Ti      5.92258798     0.05132702     4.62587702    -0.01009775    -1.12143900    -0.14748676
O       4.49795302     5.55688702     0.90148599    -0.80142704     0.03962637     0.03801917
O       4.51449600     0.95672299     0.89582300    -0.48951740    -0.30167202    -0.17082801
O       1.43857502     5.57985099     0.87948301     0.42802276    -0.47255351    -0.23238539
O       1.48014697     0.93684000     0.78461502    -0.07652531    -0.00102484     0.87982771
O       4.45872601     8.35429497     3.78608299     0.11053254     0.59250914    -0.08861490
O       4.41024798     3.79914599     3.73535701     0.22926613    -0.81078328    -0.19579446
O       1.49302598     8.31292702     3.66014002     0.11440539     1.20709122     1.35516007
O       1.49750499     3.74176503     3.72433001     0.21041428     0.17686805     0.34539004
O       3.00729600     6.07081201     3.25912997    -0.25902434    -0.32513617    -0.05813858
O       2.88292802     1.42849203     3.29112101     0.98691857    -0.38293253    -0.25675560
O       0.01521702     6.02108400     3.15104399    -0.27616975    -0.20498565     0.55855720
O       0.05546698     1.48991199     3.19734599    -1.05098483    -1.23274775     0.88894356
O       3.00235201     7.89606002     1.39054801    -0.10492907    -0.09441994     0.14595567
O       2.94824300     3.12455300     1.47525600     0.65078296     1.28997796    -1.13230345
O       5.92468802     7.92669801     1.50236999     0.11184611     0.18989172    -0.82107104
O       5.85269398     3.25876601     1.45637501     0.25683273     0.11869811    -0.43153643
