# total energy = -4990.23748787 eV

CRYSTAL
PRIMVEC
        3.02709446     0.00000000     0.00000000
        0.23700230     4.73707811     0.00000000
       -0.00000131    -0.00006156     4.74448713
PRIMCOORD
6 1
Ti      1.63204761     2.36850812     2.37224346     0.00000000     0.00000000     0.00000000
Ti      0.00000000     0.00000000     0.00000000     0.00000000     0.00000000     0.00000000
O       1.55973515     0.92317464     0.92463060    -0.11297020    -0.17959779    -0.18661459
O       1.70436002     3.81384160     3.81985627     0.11297020     0.17959779     0.18661459
O       0.07231182     1.44530853     3.29687502     0.11286659     0.17980837    -0.18690950
O       0.16468906     3.29170792     1.44761185    -0.11286659    -0.17980837     0.18690950
