# total energy = -4981.25413185 eV

CRYSTAL
PRIMVEC
        4.25885941     0.00000000     0.00000000
        0.00000000     2.53113592     0.00000000
        0.00000000    -0.00010104     5.77061477
PRIMCOORD
6 1
Ti      2.12942970     1.26551728     2.88530713     0.00000000     0.00000000     0.00000000
Ti      0.00000000     0.00000000     0.00000000     0.00000000     0.00000000     0.00000000
O       2.12942970     0.49326136     1.12460774     0.00000000    -0.54318765     1.41706969
O       2.12942970     2.03777320     4.64600651     0.00000000     0.54318765    -1.41706969
O       0.00000000     0.77221595     4.00991613     0.00000000     0.54295188     1.41701544
O       0.00000000     1.75881861     1.76069812     0.00000000    -0.54295188    -1.41701544
