# total energy = -19073.53693300 eV

CRYSTAL
PRIMVEC
        7.60600008     0.00000000     0.00000000
        0.00000000     7.60600008     0.00000000
       -1.89786986    -1.89786986     4.85670466
PRIMCOORD
22 1
Ti      3.98143099     6.58443700     1.28031001    -0.27751135     0.73815756    -0.25897986
Ti      3.57835800     2.73252902     1.15092602     1.46662104     0.28143537     0.47665236
Ti     -0.00795697     6.77535299     0.98011601    -0.00528182    -0.48998020     0.92016320
Ti     -0.15543698     2.89707097     1.04446698    -1.36086715    -0.32671920     0.25792957
Ti      5.59480924     2.96527822     3.50185680    -0.59691113    -0.47795643    -0.33316007
Ti     -1.11921576    -0.73056576     3.87121983    -2.95165683    -1.30357807    -0.75925810
Ti      1.78800420     2.73038522     3.71854383     0.72667038     0.18945901     0.70138435
Ti      1.70705522    -1.07266478     3.83197482     0.98647840     1.83359318    -1.32143747
O       3.79990700     4.73330698     0.90770398    -0.35174478    -0.11022992    -1.03768965
O       4.08329301     0.84174701     0.96711302    -1.34338930     0.08164695    -0.21778795
O      -0.19565699     4.83691401     0.65618201     0.36248197    -0.59996817    -0.14739369
O       7.09562201     1.01387800     0.58516600     2.30564944     0.18809606     1.03020311
O       5.33084721     4.93770323     3.98987782     1.82637327    -1.31625593    -0.93204093
O       5.65690523     0.90169824     3.92670179     0.10961182     1.73682994     0.34774903
O       2.19833422     4.82640424     4.19822179    -0.68125620    -2.34540411    -0.18649992
O       2.15616324     0.93275724     4.06772779    -1.28582665    -1.14961161     0.05354530
O       3.60260623     2.78875321     3.08921280     0.12555627     0.41084161     0.46035234
O      -0.05059776     2.62237221     3.24184683     0.02211535     1.39355309    -0.62925074
O       5.99730998     6.61867599     2.06149200    -0.46175410     0.16642988    -0.23097925
O       5.48669102     2.70965301     1.57675802     2.30798709     1.63681116     1.10480112
O       1.94573299     6.73099598     1.84953302     0.04393297    -0.33232575     0.24959276
O       1.73720398     2.72077002     1.26426599    -0.96727816    -0.20482418     0.45210475
