# total energy = -19961.05804618 eV

CRYSTAL
PRIMVEC
        5.93400000     0.00000000     0.00000000
        0.00000000     9.29699974     0.00000000
        0.00000000     0.00000000     4.64899994
PRIMCOORD
24 1
Ti      4.46192399     6.88971200     2.34515302    -0.53477963     1.34114936     0.49973959
Ti      4.44033901     2.41089001     2.36362400     0.36332118    -1.87811854    -0.03549769
Ti      1.47009398     6.94088498     2.21827500     0.68224351     1.20983947     0.68526944
Ti      1.48952098     2.40907700     2.32359201    -0.30048957    -1.10773527     0.81788802
Ti      2.97329700     4.64966898     0.01055201    -0.06031425    -0.26214181    -0.40965659
Ti      2.93654802     9.23753499     4.64360101     1.03609274     0.28535348    -0.51026081
Ti      5.92189698     4.68154699     0.00922800     0.01170752    -0.51109590    -0.11399196
Ti      0.02642902     9.29376002     0.05162701    -1.13988178     0.47243395    -0.63413378
O       4.40334999     5.57010899     0.89319299     0.42092060    -0.38277158    -0.75751489
O       4.43679299     0.90527400     0.95328800     0.31243234    -0.30394770    -0.69989825
O       1.45219599     5.54126698     0.90537798     0.15105931     0.18759290    -0.31807180
O       1.52733302     0.89929202     0.84547200    -0.27806362     0.17753037     0.51320241
O       4.49094999     8.29423600     3.71598901    -0.21115475     0.76755942     0.31080766
O       4.42412401     3.65866499     3.77398901     0.02567170     1.11769470     0.90731359
O       1.47689100     8.34910200     3.65746900     0.08845909     0.05148379     0.50902899
O       1.45321101     3.73447900     3.79239602     0.32454764     0.23694190    -0.09393477
O       3.00191602     5.96606502     3.07657901    -0.82022901    -0.12274245     1.07666039
O       2.94182699     1.41662300     3.23385398     0.22467619     0.48388848    -0.56614247
O       5.87223798     6.01721498     3.27254800     0.85190938     0.13404554    -0.72287132
O       0.03389798     1.50921701     3.28673398     0.09614438    -0.18938187    -0.60613394
O       3.00013200     7.87106200     1.38635798    -0.83356995    -0.42831998     0.15780331
O       3.02682799     3.38357500     1.50208301    -0.59102279    -0.47298006    -0.35291155
O       5.91921098     7.87721200     1.37015399     0.60155994    -0.68936624     0.40581896
O       0.04573499     3.30073299     1.44426701    -0.42124019    -0.11691170    -0.06251280
