# total energy = -19517.93273045 eV

CRYSTAL
PRIMVEC
        7.60600008     0.00000000     0.00000000
        0.00000000     7.60600008     0.00000000
       -1.89786986    -1.89786986     4.85670466
PRIMCOORD
23 1
Ti      3.76736101     6.75190398     1.18842198     1.15795047    -0.33186038    -0.50708575
Ti      3.75227099     2.90230999     1.22556398     1.48964939     0.34261968     0.46086321
Ti      0.04535102     6.54304698     1.23218198    -1.84591237     0.92725661    -2.00621171
Ti     -0.02045900     2.77637602     1.22044800    -0.19810794    -1.15251105     0.10780768
Ti      5.66503625     2.80486623     3.70196180    -0.52120960     0.98015271     0.00544586
Ti      5.65332423    -0.91177679     3.55149580    -0.00765932    -1.30693876     0.59771049
Ti      1.98870621     2.87549123     3.68860880     0.90036287     1.34455221     0.70782882
Ti      1.82920621    -0.87535977     3.59705780     0.94772158    -0.90201917     1.13448735
O       3.92890703     4.89248498     0.84530102    -0.59182909    -1.99774353    -0.01885699
O       4.01159600     1.03066202     0.74431500    -1.16990174    -0.06037287    -0.70021861
O      -0.22826802     4.64675401     0.82614099     1.07692341     0.79481596     0.72923866
O      -0.02173998     0.86687002     0.77616301     0.32900748     0.14236898    -0.43573401
O       5.71807420     4.71612724     3.89096883     0.57806134    -0.13945900     0.50577192
O       5.75948523     0.89841221     4.19390381     0.61516597    -0.23350845    -1.64374183
O       1.76658120     4.79678121     3.98287083     0.02141267     0.56215443    -0.23467521
O       1.98821624     1.06567921     4.11272881    -1.10350246    -1.33394384     0.06742566
O       3.87598422     2.77361323     3.56207882    -1.24268018     0.41956203    -2.14270803
O       3.77675825    -0.97867776     3.14182482    -1.01633920     0.60981602    -0.16058628
O       0.00338822    -0.85539375     3.11211279     0.75157179     0.04152256     0.90246269
O       5.71633998     6.70867798     1.54835898    -0.74289611     0.07638750     0.81295715
O       5.80038698     2.56600800     1.79341700     0.01580123     0.81762011     0.29450609
O       1.84937199     6.60580402     1.28818200     1.32128089     0.17681303     1.74332995
O       1.96709498     2.76960001     1.69900998    -0.76487134     0.22271495    -0.22001735
