# total energy = -19514.51092528 eV

CRYSTAL
PRIMVEC
        5.93400000     0.00000000     0.00000000
        0.00000000     9.29699974     0.00000000
        0.00000000     0.00000000     4.64899994
PRIMCOORD
23 1
Ti      4.48420399     7.02979400     2.14298699    -2.06744384     2.24528712    -0.39512188
Ti      4.59053602     2.24614703     2.34653602    -3.34934416     0.23464076    -0.49068108
Ti      1.46498901     6.81544002     2.48328400     1.14274419     1.61894250    -2.30796446
Ti      1.33189802     2.39066602     2.42188600     3.97131148     0.38411961    -1.18425930
Ti      3.12678502     4.62267401     0.42544300    -3.51041432    -0.02918075    -0.24636011
Ti      2.90781602     0.08317201     4.44667299    -0.33915769    -0.07948028     0.49390267
Ti      5.81371198     4.61717099     4.35653802     3.28515475     0.99516513     1.26221235
Ti      0.00171099     9.23671598     0.06586198     0.14368641    -0.77414042    -0.07946589
O       4.55014302     5.81657499     0.58984298     0.00858517    -0.44401348     0.37957570
O       4.35314800     0.66681599     0.68104101     1.09319825     2.57431080     2.59657322
O       1.58006802     5.72408798     0.83922702     0.22404936    -0.15250093     0.20416572
O       1.60451300     1.08760102     0.96410502    -0.61634174    -1.57399523    -0.98066256
O       4.55755103     8.29494801     3.55238201    -0.85787126     0.67029918     1.61760373
O       4.41603601     3.78104400     3.74777701    -0.99082485    -1.15483455    -0.86214957
O       1.45148102     8.28506298     3.78555201    -0.13697969    -0.12407171     0.00690007
O       1.48235999     3.68887598     4.18976601     0.07525930     0.16414674    -3.25626994
O       3.00617901     1.70078500     3.32757402    -0.21888272    -2.42112801     0.17368477
O       5.77952401     5.93175301     2.88323299     1.06048197    -1.45808600     1.47557748
O       0.07561202     1.42241199     3.24103502    -0.81064007    -0.89703046     0.83506711
O       2.82387401     7.92480699     1.48481199     0.51260977    -1.09040577     0.56128591
O       3.04927500     3.24102402     1.57316099     0.47966184     0.81536319    -0.26566705
O       5.83349400     8.06362701     1.50767398     1.81384325    -0.11138074    -1.16053263
O       5.90577099     3.11933299     1.28977599    -0.91268540     0.60797305     1.62258601
