# total energy = -39034.59629675 eV

CRYSTAL
PRIMVEC
        7.60600008     0.00000000     0.00000000
        0.00000000     7.60600008     0.00000000
       -3.79573973    -3.79573973     9.71340985
PRIMCOORD
46 1
Ti      1.96557846     5.15953947     5.83515964    -1.07227666    -0.24555176     2.35858693
Ti      3.79260298     6.47708101     1.21845099     0.54251300     0.07797310     1.70349429
Ti      1.77553546     1.21350144     6.21960760     0.36437225    -1.19342760    -1.06185880
Ti      3.72241000     2.55415200     1.34335899     1.18499592    -0.16227884    -0.75738222
Ti     -1.88679657     4.68376144     5.99473262     0.63834139     0.96862619    -1.92222429
Ti      0.05895500     6.51170000     1.25458999    -0.73119141     0.26421180     0.15809668
Ti     -2.04274854     1.00900242     6.09895461     1.01973794    -1.16139241     0.11051608
Ti      0.09699501     2.64556901     1.19446402    -1.35607821     0.35273054    -0.13949680
Ti      3.71509545     0.90700944     8.55558061     0.96469061    -2.67753703    -0.98095567
Ti      5.69062001     2.88545500     3.54627399     0.55759663     0.42645516     1.05455301
Ti      3.82173043    -3.02430656     8.37449965    -1.29112595     1.81141407    -0.14376149
Ti      5.82706900    -0.80888198     3.77797202    -1.12226638    -0.73218412    -0.37806029
Ti     -0.11184653     0.82664345     8.47623064    -0.33509663    -0.63853782    -0.99295938
Ti      1.84260101     3.09535300     3.65645001    -0.15209881     0.40783342     1.40720693
Ti     -0.06221754    -3.06321157     8.41458160     1.46149940     0.83731888    -0.23396585
Ti      1.94725200    -0.57047101     3.69178900     1.13387388    -0.13711364    -0.37300447
O       1.88799446    -0.61976054     5.59651562     0.28847865    -0.10371783    -0.03858559
O       3.75311598     0.68798900     0.90898602     0.00079190     1.77454444    -1.36723449
O      -1.81603456     2.78606546     5.67455863     0.23416151     2.65949842    -0.35529625
O      -0.06361901     4.51509201     0.75808202     0.36423726     1.79808958     0.50123212
O      -1.91969753    -0.87377456     5.83766662    -0.19817402    -0.73403660    -2.07034662
O       0.20698202     0.86691902     0.77947999    -0.19917392    -2.48749361    -0.91875166
O       3.57905345     2.65598846     8.83469764     0.65491524     3.06647360     1.35067530
O       5.77195900     4.86430502     4.02254198     0.47565580    -1.17275798     0.49068648
O       4.00687944    -1.12228853     8.89612062    -0.78558261    -0.67273710     0.00206665
O       5.59411401     1.02668599     4.05956200    -0.24437625    -0.89158332    -0.22472016
O      -0.13667754     2.68416746     8.83340264     0.54861500     1.13429015     0.09141329
O       1.96916798     5.09685001     3.98475899    -0.71465124    -2.70410347    -0.31922623
O      -0.03795857    -0.89811254     9.06468262    -0.26279769    -1.62782515     1.31075685
O       2.12001101     1.30671702     4.16479302    -0.26886730    -0.06242898     0.36639802
O       1.88920644     0.79263846     8.05812463    -0.21304811     0.29345091     0.64988282
O       3.80436400     2.95014899     3.25034299     0.20783134     0.69270096    -0.33111399
O       1.92504947    -2.87732457     7.76184262    -0.17413240    -0.68630276     2.23641578
O       3.91448499    -1.16384800     3.14001101    -0.45314450     1.43938610     0.49843681
O      -1.98203858     0.89620443     8.04324162     0.34752149     0.14284823     1.25864340
O      -0.04290998     2.70554299     3.33598202     1.15444169     0.93887004    -0.07456690
O      -1.89839957    -2.91475756     7.86156163    -0.16308025    -0.70908043     1.97361346
O       0.14567398    -0.58387798     3.26500998    -0.65323271    -0.31970728    -0.39206869
O       3.72874547     4.73758046     6.21233660     1.53190137    -0.44182753     0.80715083
O       5.83896802     6.54337602     1.76289802     0.52331148    -0.17744424    -1.02405586
O       3.84227346     1.08412247     6.45769164    -3.19357588     0.45235594     0.45668491
O       5.78959901     2.61758299     1.68274899    -1.39750590     0.15986560    -0.87867817
O       0.03199443     5.03046446     6.33563665    -0.49607628    -1.23458995     0.63694091
O       1.95241698     6.37458499     1.64885202    -0.41069377     0.04847431    -0.56722722
O      -0.03944355     0.82902845     6.53055464     0.88441199     1.27122432    -0.35871556
O       1.86833098     2.73945701     1.89608098     0.80435167    -0.04497684    -3.51919516
