# total energy = -19074.62929163 eV

CRYSTAL
PRIMVEC
        7.60600008     0.00000000     0.00000000
        0.00000000     7.60600008     0.00000000
       -1.89786986    -1.89786986     4.85670466
PRIMCOORD
22 1
Ti      3.86212697     6.76365902     1.00992399     0.14966243    -0.92627728    -0.04979714
Ti      3.86801000     2.90469700     1.27221000     1.76222885     1.18727572     0.50630362
Ti     -0.02484598     6.61790000     1.14826097     0.63510283    -1.24029265     0.50829494
Ti      0.05177999     2.64942899     1.11936398    -0.55539937     1.41114021    -0.29582995
Ti      5.82972324     2.68519422     3.59261483    -1.60830816     0.17902135     1.19742618
Ti      6.05106221    -1.19205976     3.68926382    -1.48207054     1.30987650    -0.71244215
Ti      1.94624921     2.94738425     3.57860079     1.18826276     0.10853196     0.55150466
Ti      1.21400421    -0.60114477     3.86435079     2.32389631    -2.04164976    -1.75769779
O       3.78812101     4.90441999     0.84249802    -0.09965625     0.17377578    -0.87183261
O       3.69707400     1.06195799     1.05711199    -0.17707168    -0.92299835    -1.36296672
O       0.02644002     4.65016101     0.76828599     0.63293076    -0.61330063    -0.58432069
O       7.13485098     0.83500201     0.65697800     1.41137778     0.09311434     0.74777015
O       5.53859723     4.60418122     4.12910579     1.21539640     0.49143698    -2.01877439
O       5.57683722     0.74199620     4.04743479     1.26737461     0.57028915    -1.09210475
O       2.04232123     4.93054621     3.95654479    -0.91413216     0.41554288     1.34247347
O       2.13917623     1.03120924     4.13525382    -1.36522903    -0.10398111    -0.37976853
O       3.88059722     2.76384420     3.22288879    -0.02688295     0.39849594     0.14353034
O       0.05578523     2.76177924     3.16043080     1.20899718    -0.36446198     0.40435857
O       5.74930698     6.49295400     1.68197698    -1.08069419     0.35471621     1.51410702
O       5.83540999     2.91959900     1.56922597    -0.61896349    -0.24073042     0.84326404
O       1.80861698     6.77541601     1.88275402    -0.73513780     0.30835200     0.86332508
O       2.09461902     3.06198203     1.58493301    -3.13168452    -0.54787658     0.50317665
