# total energy = -19073.39011119 eV

CRYSTAL
PRIMVEC
        5.17600016     0.00000000     0.00000000
        0.00000000     5.50899976     0.00000000
        0.00000000     0.00000000     9.26300011
PRIMCOORD
22 1
Ti      1.93308698     3.30601799     3.24080901    -0.99416060     1.60897356     1.04452673
Ti      3.55537202     2.33494000     5.91269898     0.30346433    -0.00093074    -1.21489812
Ti      4.25170197     2.24878900     1.33940599     1.32983753     0.67823053    -2.29312431
Ti      0.78714698     3.14923902     8.03324102    -0.30120793     0.85542768     1.05588947
Ti      1.73960099     0.44620803     1.32535601    -0.56308980     0.01278044    -2.45402940
Ti      3.25929899     4.95674102     8.01495599     1.15967311     0.41522509     2.15832878
Ti      1.19817900     0.26426001     6.01374199    -0.45722716     0.33734480     0.24283076
Ti      4.30823297     5.13717300     3.43492297    -0.67165056    -0.86421468     2.47499650
O       3.57489798     3.42768198     4.32026800    -0.88491876    -0.19023394     1.32647966
O       0.78905599     2.04533400     0.27660598     0.14620275    -1.16112013    -0.41963504
O       4.22587802     3.57443098     8.94315903     0.35950643    -0.30371527    -0.04902890
O       3.22652202     0.70973798     0.30909301     2.18745399     1.76607470    -0.75889455
O       1.73666099     4.65936399     9.00556802    -2.68969835    -1.31547251     0.25231479
O       3.44686899     0.80049902     4.70475898     1.69868452    -0.47827859    -0.65229657
O       1.09594799     5.03097098     4.40405300    -1.59035105    -0.82504931    -0.74789613
O       0.01340200     3.37607799     2.48265999     1.20919592     0.36835283     0.40869191
O       0.23450998     2.08244800     6.49907198    -0.42310141    -1.04335328    -0.54697797
O       2.58055302     1.90447400     2.27712300    -0.07226962     0.18734710     0.61539660
O       2.45236999     3.83990201     6.77990301    -1.36930166    -0.94892717    -0.83159303
O       5.04148002     0.67697900     2.14209300     1.11059151     0.12455714    -0.16316072
O       2.61878698     0.97113402     7.02607802     0.58219207     1.21018220     0.16564518
O       2.75733997     4.68899601     2.29437402    -0.06982476    -0.43320070     0.38643463
