# total energy = -19519.98827060 eV

CRYSTAL
PRIMVEC
        5.17575250     0.00001323     0.00000000
        0.00001429     5.50856584     0.00000000
        0.00000000     0.00000000     9.26345890
PRIMCOORD
23 1
Ti      1.85063741     3.37194254     3.38406214    -0.01309129     0.03610499     0.02169678
Ti      3.35618164     2.18180022     5.77293268     0.05624933    -0.03636801     0.01042891
Ti      4.55838341     1.94409163     1.41064698     0.00747034     0.05867260     0.00366614
Ti      0.86582921     3.28879459     7.94493155    -0.01535335     0.03642046     0.01818876
Ti      1.99861095     0.52755136     1.22836870     0.01256293    -0.00915416    -0.04190720
Ti      3.18070241     5.15762090     7.93320583    -0.05991110    -0.00245412     0.01892975
Ti      0.65980963     0.71202496     5.66671214    -0.03563885    -0.03991871    -0.02377397
Ti      4.51953368     4.84702517     3.54938172     0.04772175    -0.00904772    -0.03664929
O       1.56727178     1.93690229     4.65901228    -0.01581152     0.02234289     0.00970206
O       3.54006436     3.54640063     4.52064477     0.02202382    -0.03727201     0.00147710
O       0.75983715     2.09641982     0.11001085    -0.00817148     0.00632569    -0.02594424
O       3.51673778     0.91734347     0.05964164     0.01764677    -0.04333467     0.05154627
O       1.72971513     4.68712535     9.15424679     0.00163676    -0.00791334     0.01411022
O       4.10323609     0.77351051     4.71851946    -0.04001872     0.05523503     0.01044588
O       0.97543877     4.63554805     4.59075637     0.03674956    -0.00596548     0.02326438
O       0.16961502     3.35468380     2.42694093    -0.00214096     0.01375464    -0.00272049
O       4.95557898     2.12072943     6.82465237    -0.01410765     0.01479799    -0.02974305
O       2.77326250     2.15927049     2.10017346    -0.01358623    -0.01533921     0.01394104
O       2.51538634     3.39586680     7.15397215    -0.03535602    -0.01869193    -0.02274810
O       0.24271385     0.54355645     2.18322393     0.02124272    -0.06108326     0.04435592
O       4.91652728     4.74796128     7.39393457     0.03170943     0.02341273    -0.04037225
O       2.32436969     0.70518641     6.75198188     0.00323856     0.02856831    -0.01758224
O       2.80374484     4.88269901     2.45546979    -0.00506533    -0.00909245    -0.00031213
