# total energy = -19939.34980745 eV

CRYSTAL
PRIMVEC
        5.72956455     0.00000000     0.00000000
        2.61189501     5.51030631     0.00000000
        0.00000000     0.00000000    10.53802325
PRIMCOORD
24 1
Ti      3.62449808     3.26540239     3.90953144     1.27932921    -3.31887658     0.90260178
Ti      4.71696129     2.24490385     6.62849187    -1.27932921     3.31887658    -0.90260178
Ti      6.00546853     2.24490571     1.35943812    -3.01907736    -0.61585605     0.86476336
Ti      2.33599094     3.26540073     9.17858535     3.01907736     0.61585605    -0.86476336
Ti      2.31855071     0.51024932     1.35948036     1.27932921    -3.31887658    -0.90260178
Ti      6.02290870     5.00005709     9.17854312    -1.27932921     3.31887658     0.90260178
Ti      1.03004343     0.51024729     6.62844963     3.01907736     0.61585605     0.86476336
Ti      7.31141603     5.00005911     3.90957373    -3.01907736    -0.61585605    -0.86476336
O       2.73313593     1.94027250     5.37747261     1.40980246     1.97405337    -1.10789211
O       5.60832344     3.57003374     5.16055076    -1.40980246    -1.97405337     1.10789211
O       1.97107557     1.94029476     0.10849487     0.59136654    -1.03519208     1.16858790
O       6.37038388     3.57001158    10.42952820    -0.59136654     1.03519208    -1.16858790
O       4.30237604     0.81488056     0.10846064    -1.40980246    -1.97405337    -1.10789211
O       4.03908334     4.69542574    10.42956238     1.40980246     1.97405337     1.10789211
O       5.06443647     0.81485834     5.37750678    -0.59136654     1.03519208     1.16858790
O       3.27702285     4.69544797     5.16051652     0.59136654    -1.03519208    -1.16858790
O       1.79687090     3.35168070     2.84658299     0.61036392     1.94939006     1.84337186
O       6.54458842     2.15862556     7.69144037    -0.61036392    -1.94939006    -1.84337186
O       4.09612994     2.15857428     2.42246218     1.28569861     1.20178857     0.50599792
O       4.24532943     3.35173196     8.11556095    -1.28569861    -1.20178857    -0.50599792
O       0.49092349     0.59652746     2.42242852     0.61036392     1.94939006    -1.84337186
O       7.85053583     4.91377879     8.11559461    -0.61036392    -1.94939006     1.84337186
O       2.93938202     0.59657873     7.69147392    -1.28569861    -1.20178857     0.50599792
O       5.40207735     4.91372751     2.84654933     1.28569861     1.20178857    -0.50599792
