# total energy = -39031.17924473 eV

CRYSTAL
PRIMVEC
        5.93200024     0.00000000     0.00000000
        0.00000000     9.29399984     0.00000000
        0.00000000     0.00000000     9.29399984
PRIMCOORD
46 1
Ti      4.44418200     7.13109398     6.71230300     0.38699796     0.61234187     0.67062109
Ti      4.33709102     6.71119300     2.58913199    -2.10136082     1.06046372    -1.46366761
Ti      4.46145900     2.19229297     7.07775598    -0.24937936    -0.06985896    -0.94760716
Ti      4.30912802     2.65616901     2.04477899    -0.23225323    -0.81216731     1.15620418
Ti      1.49288898     6.81548399     7.27173099    -0.37499605     1.30003123    -2.22674123
Ti      1.43006199     7.08625499     2.06486402     0.61631782     0.66134968     0.25552893
Ti      1.47384199     2.43568101     6.86740300     0.20653859     0.35666819    -0.65737990
Ti      1.43600698     2.00835498     2.76753198     0.29126419     0.41101053    -0.48880109
Ti      2.86486101     4.71497300     4.75933398     0.15765985    -0.87532982     0.33849331
Ti      3.02505302     4.67622500     8.99301398     0.81066373    -1.08479408    -1.41991976
Ti      3.09238400     9.10356498     4.52480998    -0.45716802     1.11849894     1.15433319
Ti      3.03202700     9.24119499     0.05618899    -0.67302790    -0.21062742    -0.15631336
Ti      5.91356598     4.68417298     4.74664098    -0.53575562    -1.36754482     0.16210580
Ti      0.06150902     4.87146998     0.01664299    -2.03641627    -0.91987163    -2.07722278
Ti      0.09592301     9.17816299     4.69938598    -0.07316822    -0.00781667     1.74036726
Ti      5.91944101     9.21369698     0.01752598     0.69806299     0.46989782    -0.49378157
O       4.29328202     5.86429402     5.26870799     1.75626851     0.51469211     1.19428969
O       4.40809899     5.52445798     0.87836999     0.52366372    -0.57160555     0.51712643
O       4.55983898     0.72516598     5.71090898    -0.91842950     0.01394773    -1.72262742
O       4.46386802     1.01071701     0.49336603    -0.73366379     1.62484396     2.47258249
O       1.43198401     5.49507700     5.79252298    -1.01777619     0.13264532    -1.20968700
O       1.62945502     5.39598798     0.70586900    -0.08554758     1.63115216     2.40212472
O       1.48405199     0.93136699     5.40598800     0.76551257     0.48389156    -1.04155402
O       1.49485302     0.67174998     1.05458501     0.30765343     1.85161251    -0.05511239
O       4.32562502     8.51485201     8.05001102     0.20503450     0.49237389     2.10554324
O       4.60829701     8.34280701     3.66254402    -1.19797897     0.07331195     0.74864561
O       4.66314999     3.64952202     8.40283402    -0.78512392     0.86983486     1.66384143
O       4.33032200     3.97920400     3.88294698     1.20042409    -1.53789281    -2.54169711
O       1.28926099     8.01073199     8.69692698     1.74921520     1.09939589    -0.75901025
O       1.51722801     8.43303798     3.53958799     0.31592390     0.72884400     0.51947385
O       1.50790502     4.07886702     7.97221799    -0.27454404    -0.64340466     1.73500471
O       1.55928898     3.56338001     4.07326700    -1.73124190    -0.18487910    -1.62475962
O       3.05775099     6.17765797     7.89437200     1.90743658    -0.90156331     0.46959288
O       2.63972202     6.04420302     3.18745000     0.82555813     0.01118533    -0.08712752
O       2.81309499     1.68626400     7.91440898     0.22312170    -1.57826429     0.70940696
O       3.30848898     1.48020301     3.10092799    -0.31682970    -0.23569260     0.20201731
O       5.78600998     6.17627000     7.83447099    -1.17117983    -1.39547499     1.11672925
O       5.90266599     6.10231700     3.05003400     2.64353186    -1.45938646     1.02221649
O       0.12435300     1.46139500     7.75972697     0.37348373    -0.87917851     1.05701073
O       2.81117201     7.84241002     6.16946800    -0.30320491     1.06832050    -1.87319770
O       3.16655999     7.88163999     1.51247103    -0.84255133     0.06209294    -1.20410488
O       3.04372298     3.28909300     6.04414200     0.65448278    -0.27162378     0.53405818
O       0.14774698     7.92425501     6.03478102     0.00938684    -0.79557032     0.17645873
O       5.87431802     8.11224703     1.47281401    -0.94659595    -1.83934423     0.49240243
O       5.77266402     3.20645498     6.05265303     0.00797659     1.35154767    -1.04774318
O       0.12274298     3.15801097     2.00511499     0.42201357    -0.35806379    -1.51812359
