# total energy = -19897.93299182 eV

CRYSTAL
PRIMVEC
        8.28120435     0.00000000     0.00000000
        0.00003125     5.28822320     0.00000000
        0.00000000     0.00000000    12.64770949
PRIMCOORD
24 1
Ti      3.00155655     3.13379615     4.69221004     0.53283613    -0.60919150     2.15543371
Ti      5.27967850     2.15442698     7.95549959    -0.53283613     0.60919150    -2.15543371
Ti      7.14201625     2.15442876     1.63159425     0.53216353     0.60949206    -2.15629580
Ti      1.13921887     3.13379457    11.01611545    -0.53216353    -0.60949206     2.15629580
Ti      3.00154120     0.48968462     1.63164498     0.53298140    -0.66372333    -2.15561189
Ti      5.27969385     4.79853865    11.01606478    -0.53298140     0.66372333     2.15561189
Ti      1.13920345     0.48968270     7.95544886    -0.53301996    -0.66382257    -2.15677506
Ti      7.14203160     4.79854057     4.69226070     0.53301996     0.66382257     2.15677506
O       2.62106431     1.86207323     6.45402937     0.65813195     1.50613351    -1.98877500
O       5.66017081     3.42614983     6.19368026    -0.65813195    -1.50613351     1.98877500
O       1.51960800     1.86209459     0.13021526    -0.65887500     1.50750159    -1.99092264
O       6.76162719     3.42612855    12.51749396     0.65887500    -1.50750159     1.99092264
O       5.66015545     0.78203816     0.13017422    -0.65827439    -1.50748514    -1.98871792
O       2.62107967     4.50618490    12.51753501     0.65827439     1.50748514     1.98871792
O       6.76161177     0.78201688     6.45407035     0.65876675    -1.50765714    -1.98932059
O       1.51962321     4.50620626     6.19363921    -0.65876675     1.50765714     1.98932059
O       0.30089420     3.21659713     3.41646187    -2.16740349     0.69439609     0.16261488
O       7.98034092     2.07162594     9.23124769     2.16740349    -0.69439609    -0.16261488
O       4.44150591     2.07157677     2.90743311    -2.16724459    -0.69470333    -0.16547318
O       3.83972915     3.21664636     9.74027624     2.16724459     0.69470333     0.16547318
O       0.30087878     0.57248546     2.90739274    -2.16810000     0.69359416    -0.16458126
O       7.98035627     4.71573761     9.74031661     2.16810000    -0.69359416     0.16458126
O       3.83971379     0.57253469     9.23128800     2.16702245     0.69345352    -0.16310107
O       4.44152126     4.71568838     3.41642150    -2.16702245    -0.69345352     0.16310107
