# total energy = -19957.63502861 eV

CRYSTAL
PRIMVEC
        7.60600008     0.00000000     0.00000000
        0.00000000     7.60600008     0.00000000
       -1.89786986    -1.89786986     4.85670466
PRIMCOORD
24 1
Ti      3.95151300     6.62683902     1.20510101     1.30758976     0.82708126     0.62680664
Ti      3.64078203     2.79571601     1.22836899     2.83049741    -1.43029545    -1.84016827
Ti      0.17902299     6.76308999     1.24404798    -0.81500684    -1.58609150    -1.53057417
Ti     -0.06064800     2.82460502     1.30400900    -2.01259911     1.01626335    -0.91231901
Ti      5.63928823     2.89725121     3.65341883     1.59608898     0.33361439     1.62904308
Ti      5.64675322    -0.84410079     3.63850381     1.96488739    -0.92410033     0.52146157
Ti      2.01840321     2.89061522     3.64133983    -1.10399174    -2.79692676     0.25575775
Ti      1.94075222    -1.10112477     3.53757680    -0.64205509     3.08306622     0.40362144
O       3.93061198     4.53205997     0.77056801    -0.80180036     3.77483593    -0.24928808
O       4.11064502     0.86256601     0.78243503    -0.90903803    -0.94275189    -1.68177180
O      -0.24322902     4.78385802     0.99499801     1.51425691    -1.42395151    -0.82831153
O      -0.24621400     0.86261602     0.80681502     0.30359957     3.07698556    -0.75312113
O       5.80955524     4.76453320     4.19892480     0.00452052    -0.48099727    -2.14250877
O       5.56503725     0.91955120     4.06026083     0.15277346     0.82863163     0.89738604
O       1.45981022     4.65489223     3.60574980     1.51014032     1.12246667     1.74679631
O       1.98757721     0.85961622     4.08677679    -0.73098984    -0.53582658     0.13755227
O       3.83326025     2.83532721     3.25763981    -3.00626991     0.61169241     0.31002271
O       3.89293620    -0.93593876     3.05625680    -2.24870309    -1.17760245     0.92985549
O      -0.17883476     2.69090320     3.10726679     2.01873376    -0.27903833     2.21873584
O      -0.11122777    -0.64049678     2.99036783     2.48138287    -0.69870500     4.51433766
O       5.79956501     6.68563501     1.67717501    -3.38971487    -0.85106143    -1.62667998
O       5.60359501     2.84314501     1.80048400    -0.62222365    -0.11171319    -1.86861985
O       2.02993901    -0.53637401     1.65979000     0.10419451    -1.61750577    -0.01295914
O       1.84276701     2.60599602     1.73673201     0.49372681     0.18193004    -0.74505506
