# total energy = -4989.15626999 eV

CRYSTAL
PRIMVEC
        3.59509791     0.00000000     0.00000000
        0.17963493     3.59060722     0.00000000
       -1.88739833    -1.79533397     4.58957990
PRIMCOORD
6 1
Ti      0.13458096     2.69309176     1.14739485     0.00252328    -0.00239267    -0.00117731
Ti      1.75275308    -0.89781895     3.44218480    -0.00252328     0.00239267     0.00117731
O       0.04494655     0.89764593     0.74760504     0.00020132     0.00134520     1.09245083
O       1.84238734     0.89762679     3.84197466    -0.00020132    -0.00134520    -1.09245083
O      -0.04492882    -0.89762907     3.04239499     0.00134597     0.00014810     1.09189830
O       1.93226271     2.69290173     1.54718476    -0.00134597    -0.00014810    -1.09189830
