# total energy = -4989.97532988 eV

CRYSTAL
PRIMVEC
        4.11310457     0.00000000     0.00000000
       -0.00000831     3.72138074     0.00000000
       -2.05658131    -1.86072772     5.01180251
PRIMCOORD
6 1
Ti     -0.00017980     2.79117539     1.25295038    -0.00129404    -0.00136217     2.00132353
Ti      2.05669443    -0.93052226     3.75885153     0.00129404     0.00136217    -2.00132353
O       0.00004179     0.93033818     0.81638159    -0.00007893     0.00025403    -0.39752432
O       2.05647268     0.93031484     4.19542043     0.00007893    -0.00025403     0.39752432
O      -0.00002109    -0.93032517     3.32228273    -0.00153881    -0.00022497    -0.69718676
O       2.05653556     2.79097813     1.68951928     0.00153881     0.00022497     0.69718676
