# total energy = -19941.97517356 eV

CRYSTAL
PRIMVEC
        5.59693574     0.00000000     0.00000000
        2.55143448     5.38275293     0.00000000
        0.00000000     0.00000000    10.29408752
PRIMCOORD
24 1
Ti      3.54059766     3.18981437     3.81903303     1.65172305    -3.52300116     0.98072195
Ti      4.60777237     2.19293848     6.47505455    -1.65172305     3.52300116    -0.98072195
Ti      5.86645306     2.19294030     1.32796965    -3.74700989    -0.32738460     1.01098719
Ti      2.28191708     3.18981275     8.96611810     3.74700989     0.32738460    -1.01098719
Ti      2.26488056     0.49843799     1.32801090     1.65172305    -3.52300116    -0.98072195
Ti      5.88348951     4.88431503     8.96607684    -1.65172305     3.52300116     0.98072195
Ti      1.00619983     0.49843601     6.47501330     3.74700989     0.32738460     1.01098719
Ti      7.14217029     4.88431700     3.81907434    -3.74700989    -0.32738460    -1.01098719
O       2.66986890     1.89535879     5.25299407     1.18830467     1.84889974    -1.14839625
O       5.47850114     3.48739407     5.04109356    -1.18830467    -1.84889974     1.14839625
O       1.92544882     1.89538053     0.10598342     0.76222181    -0.97936158     0.90292369
O       6.22292129     3.48737242    10.18810394    -0.76222181     0.97936158    -0.90292369
O       4.20278400     0.79601758     0.10594998    -1.18830467    -1.84889974    -1.14839625
O       3.94558604     4.58673533    10.18813732     1.18830467     1.84889974     1.14839625
O       4.94720415     0.79599588     5.25302746    -0.76222181     0.97936158     0.90292369
O       3.20116584     4.58675704     5.04106012     0.76222181    -0.97936158    -0.90292369
O       1.75527666     3.27409549     2.78068986     0.57390412     1.47548080     1.41403244
O       6.39309332     2.10865737     7.51339777    -0.57390412    -1.47548080    -1.41403244
O       4.00131212     2.10860728     2.36638667     1.44964481     0.82225735     0.04979046
O       4.14705791     3.27414557     7.92770074    -1.44964481    -0.82225735    -0.04979046
O       0.47955952     0.58271895     2.36635379     0.57390412     1.47548080    -1.41403244
O       7.66881046     4.80003391     7.92773362    -0.57390412    -1.47548080     1.41403244
O       2.87134077     0.58276903     7.51343054    -1.44964481    -0.82225735     0.04979046
O       5.27702926     4.79998382     2.78065698     1.44964481     0.82225735    -0.04979046
