# total energy = -19518.19571403 eV

CRYSTAL
PRIMVEC
        5.93400000     0.00000000     0.00000000
        0.00000000     9.29699974     0.00000000
        0.00000000     0.00000000     4.64899994
PRIMCOORD
23 1
Ti      4.47979298     7.04178299     2.17020803     0.98182933     0.70034793     0.31667287
Ti      4.50268799     2.29693402     2.34413901     0.35014607     0.25815197     0.13251291
Ti      1.46602397     7.03623198     2.28701300    -1.23590018     0.44850494    -0.10345352
Ti      1.49575802     2.26182300     2.31864500    -0.53353470     0.39042139     0.30647330
Ti      2.99299001     4.50081698     0.26579801    -0.54830981    -0.69101277    -0.79761640
Ti      2.96863198     9.27678300     4.48742102     0.29145085    -0.27726941     0.69286654
Ti      5.93397000     4.70860599     0.05171797     0.77717433    -0.95224518    -1.29691865
Ti      5.90396200     0.10316998     4.62660998     0.11766195    -0.66934762     0.72887999
O       4.45486000     5.51273501     1.00161802    -0.80113085     0.10366383    -0.66266609
O       4.42755302     0.85062899     0.91046502     0.01306507     0.24149404     0.19013084
O       1.49536500     5.55134098     1.03133302     0.39268833    -0.21335305    -0.67469320
O       1.47103401     0.90301600     0.96362299    -0.04139992     0.05262999    -0.25467738
O       4.42621997     8.37028401     3.59694001    -0.00660002     0.37717069     0.68117033
O       4.41355602     3.65180701     3.81810101    -0.21676696     1.14959747     0.39170823
O       1.47428898     8.46343101     3.70299401    -0.24315703    -0.99126168    -0.72389436
O       1.43227601     3.79647201     3.74258398     0.62242163     0.25670289     0.51444451
O       2.98443798     1.41465901     3.24009298    -0.39110993    -0.22761368     0.17155307
O       5.86039298     6.10063601     3.14066301     0.35893308    -0.25089014     1.16526321
O       5.89094101     1.43144198     3.31567399     0.64438451     0.27595455    -0.63891294
O       2.94764201     7.90005499     1.36081100    -0.23577950    -0.75507131     0.25872275
O       3.00704702     3.29495501     1.62912900    -0.60101358     0.03541027    -0.95438176
O       0.02218999     7.76147897     1.24696502     0.04697022     0.81785768     0.02832714
O       5.89744301     3.19420501     1.36781799     0.25797713    -0.07984307     0.52848814
