# total energy = -19951.01578589 eV

CRYSTAL
PRIMVEC
        5.07665008     0.00000000     0.00000000
        1.58528427     5.16529417     0.00000000
        0.00000000     0.00000000     9.19238399
PRIMCOORD
24 1
Ti      2.77947945     3.06094857     3.41030890     2.12479592    -2.30334316     1.03209956
Ti      3.88245482     2.10434572     5.78207514    -2.12479592     2.30334316    -1.03209956
Ti      5.02412955     2.10434750     1.18584640    -4.09353457    -0.00205843     1.51981332
Ti      1.63780480     3.06094699     8.00653775     4.09353457     0.00205843    -1.51981332
Ti      1.98683743     0.47830157     1.18588325     2.12485609    -2.30231241    -1.03330258
Ti      4.67509686     4.68699287     8.00650089    -2.12485609     2.30231241     1.03330258
Ti      0.84516268     0.47829964     5.78203829     4.09392152     0.00313263     1.52093767
Ti      5.81677161     4.68699480     3.41034575    -4.09392152    -0.00313263    -1.52093767
O       2.16499732     1.81878792     4.69080319    -0.25743077     0.54642827    -0.91021894
O       4.49693695     3.34650642     4.50158085     0.25743077    -0.54642827     0.91021894
O       1.48977485     1.81880876     0.09464076     0.88062579    -0.74473419     0.03597849
O       5.17215948     3.34648562     9.09774302    -0.88062579     0.74473419    -0.03597849
O       3.70429491     0.76385926     0.09461094     0.25689058    -0.54659385    -0.91043928
O       2.95763936     4.40143507     9.09777285    -0.25689058     0.54659385     0.91043928
O       4.37951744     0.76383847     4.69083301    -0.88146936     0.74536951     0.03574477
O       2.28241679     4.40145593     4.50155103     0.88146936    -0.74536951    -0.03574477
O       1.14870620     3.14182476     2.48309225    -0.14915643    -0.65508108    -0.86683361
O       5.51322807     2.02346958     6.70929179     0.14915643     0.65508108     0.86683361
O       3.34379127     2.02342141     2.11312901     1.45992820    -1.07392602    -1.61716972
O       3.31814300     3.14187292     7.07925488    -1.45992820     1.07392602     1.61716972
O       0.35606411     0.55917762     2.11309965    -0.14925079    -0.65467433     0.86438823
O       6.30587011     4.60611673     7.07928424     0.14925079     0.65467433    -0.86438823
O       2.52550096     0.55922577     6.70932110    -1.46012643     1.07397204    -1.61580318
O       4.13643331     4.60606857     2.48306289     1.46012643    -1.07397204     1.61580318
