# total energy = -19517.90539388 eV

CRYSTAL
PRIMVEC
        5.17600016     0.00000000     0.00000000
        0.00000000     5.50899976     0.00000000
        0.00000000     0.00000000     9.26300011
PRIMCOORD
23 1
Ti      1.79906898     3.13099103     3.44280099    -0.16042096     0.11920976     2.22849395
Ti      3.41494098     2.23536202     5.87548099     0.87683803    -0.30772182    -2.27619025
Ti      4.39633601     2.11825801     1.43699199     0.54165887    -1.08225048    -1.34876188
Ti      0.92489700     3.42215398     7.73711301    -1.31013310    -0.29901864     0.88752766
Ti      1.97068201     0.30534400     1.32156001    -0.17696601     0.82324568    -1.07458037
Ti      3.18517602     5.21288101     7.96451698     1.45722005    -1.55880232     0.86153508
Ti      0.76553501     0.52456198     5.90167902    -0.87627753    -0.10334244    -2.54025935
Ti      4.42675000     4.86171301     3.36485297     0.72487755     1.25641039     2.88629937
O       1.58824000     1.92654000     4.88443799     1.01508605     0.48051673    -0.90532638
O       3.51159599     3.49077800     4.45204298    -0.16571075     0.50493579     0.20974965
O       0.19716001     2.61026601     9.22336399     0.09058900     0.29100682     0.53427646
O       3.42830302     0.87891198     0.06361499     0.34564073     0.52650967     1.88511503
O       1.62838302     4.76090998     9.03455000     0.20516511    -0.07358140     0.70648208
O       4.31425300     0.81579600     4.82628401    -0.59132181    -0.59116214    -0.53885174
O       0.93038701     4.67943198     4.38475899     0.07732724     0.16745910     1.02263738
O       0.07327602     3.38697301     2.53152300     0.43466212    -0.06546802    -0.81485463
O       5.11509699     2.06644002     6.77810598    -0.47127670     0.55406060     0.13271988
O       2.66048101     1.91534499     2.26396702     0.01099558     0.52179375    -0.59424952
O       2.70639201     3.47736802     7.13065699    -0.09095692    -0.10193579     0.39629019
O       0.26112098     0.76499202     2.11402798    -0.26597532    -1.08331775    -0.15589504
O       5.05186602     4.88310299     7.17318299    -0.80464966    -0.48445027     0.43946186
O       2.48868901     0.85985202     6.92106798    -1.61471509     0.90214850    -1.51579160
O       2.68538499     4.65037200     2.44744801     0.74834325    -0.39624597    -0.42582832
