# total energy = -4985.58213828 eV

CRYSTAL
PRIMVEC
        3.64472942     0.00000000     0.00000000
        0.00000000     3.07501632     0.00000000
        0.00000000    -0.00006946     4.82734087
PRIMCOORD
6 1
Ti      1.82236461     1.53747338     2.41367059     0.00000000     0.00000000     0.00000000
Ti      0.00000000     0.00000000     0.00000000     0.00000000     0.00000000     0.00000000
O       1.82236461     0.59926184     0.94077768     0.00000000    -2.03333146    -1.40775484
O       1.82236461     2.47568497     3.88656344     0.00000000     2.03333146     1.40775484
O       0.00000000     0.93818386     3.35444919     0.00000000     2.03328441    -1.40679479
O       0.00000000     2.13676290     1.47289198     0.00000000    -2.03328441     1.40679479
