# total energy = -4983.53692077 eV

CRYSTAL
PRIMVEC
        3.94586075     0.00000000     0.00000000
        0.00000000     2.64967378     0.00000000
        0.00000000    -0.00008492     5.25728964
PRIMCOORD
6 1
Ti      1.97293038     1.32479438     2.62864472     0.00000000     0.00000000     0.00000000
Ti      0.00000000     0.00000000     0.00000000     0.00000000     0.00000000     0.00000000
O       1.97293038     0.51636584     1.02456830     0.00000000    -1.58409658    -0.30726931
O       1.97293038     2.13322298     4.23272114     0.00000000     1.58409658     0.30726931
O       0.00000000     0.80839487     3.65321403     0.00000000     1.58338387    -0.30763878
O       0.00000000     1.84119390     1.60407537     0.00000000    -1.58338387     0.30763878
