# total energy = -19928.83843671 eV

CRYSTAL
PRIMVEC
        6.99373551     0.00000000     0.00000000
        0.00002955     5.50168013     0.00000000
        0.00000000     0.00000000    11.13510432
PRIMCOORD
24 1
Ti      2.53491027     3.26029059     4.13104428     0.47585866    -0.60981525     0.94889271
Ti      4.45885485     2.24138972     7.00406010    -0.47585866     0.60981525    -0.94889271
Ti      6.03165724     2.24139164     1.43646342     0.47625487     0.60978773    -0.94910072
Ti      0.96210788     3.26028893     9.69864109    -0.47625487    -0.60978773     0.94910072
Ti      2.53489562     0.50945065     1.43650806     0.47585866    -0.60981525    -0.94889271
Ti      4.45886949     4.99222985     9.69859644    -0.47585866     0.60981525     0.94889271
Ti      0.96209323     0.50944855     7.00401545    -0.47625487    -0.60978773    -0.94910072
Ti      6.03167189     4.99223195     4.13108893     0.47625487     0.60978773     0.94910072
O       2.21357189     1.93723514     5.68215850     0.85573955     1.28809154    -1.03225228
O       4.78019329     3.56444518     5.45294588    -0.85573955    -1.28809154     1.03225228
O       1.28335763     1.93725733     0.11464216    -0.85570433     1.28826406    -1.03277653
O       5.71040761     3.56442305    11.02046191     0.85570433    -1.28826406     1.03277653
O       4.78017864     0.81360505     0.11460604    -0.85573955    -1.28809154    -1.03225228
O       2.21358654     4.68807526    11.02049803     0.85573955     1.28809154     1.03225228
O       5.71039296     0.81358292     5.68219463     0.85570433    -1.28826406    -1.03277653
O       1.28337216     4.68809746     5.45290975    -0.85570433     1.28826406     1.03277653
O       0.25411657     3.34643372     3.00786947    -1.32310638     0.26397166     0.10169077
O       6.73964861     2.15524659     8.12723491     1.32310638    -0.26397166    -0.10169077
O       3.75099186     2.15519528     2.55971813    -1.32312514    -0.26375929    -0.10178924
O       3.24277332     3.34648510     8.57538607     1.32312514     0.26375929     0.10178924
O       0.25410192     0.59559366     2.55968256    -1.32310638     0.26397166    -0.10169077
O       6.73966326     4.90608672     8.57542163     1.32310638    -0.26397166     0.10169077
O       3.24275867     0.59564497     8.12727041     1.32312514     0.26375929    -0.10178924
O       3.75100651     4.90603535     3.00783391    -1.32312514    -0.26375929     0.10178924
