# total energy = -4829.57924295 eV

CRYSTAL
PRIMVEC
        5.27686814     0.00000000     0.00000000
       -0.00000653     1.75895605     0.00000000
       -2.63846765    -0.87959248     5.98618463
PRIMCOORD
6 1
Ti     -0.00022583     1.31925898     1.49654579    -0.09046378    -0.05862092   169.04878686
Ti      2.63861965    -0.43989546     4.48963796     0.09046378     0.05862092  -169.04878686
O       0.00005571     0.43971995     0.97510040     0.08993671     0.05758836  -163.29711614
O       2.63833796     0.43964353     5.01108340    -0.08993671    -0.05758836   163.29711614
O      -0.00002421    -0.43979382     3.96819257    -0.00077519     0.00087726    -0.12808726
O       2.63841778     1.31915724     2.01799123     0.00077519    -0.00087726     0.12808726
