# total energy = -19952.75525330 eV

CRYSTAL
PRIMVEC
        5.93400000     0.00000000     0.00000000
        0.00000000     9.29699974     0.00000000
        0.00000000     0.00000000     4.64899994
PRIMCOORD
24 1
Ti      4.42845601     6.70544698     2.59468602     2.33138619     4.43046439    -3.50126685
Ti      4.36656000     2.46951100     2.22660499     3.14793467     1.18037487    -0.28342823
Ti      1.59067602     6.12473501     2.27991700    -2.49475209     6.34723716    -1.36678172
Ti      1.52002403     2.55786502     2.22886097    -2.66913929    -0.70458640     1.15134942
Ti      3.00833102     4.55949797     0.09899499     2.60611458     2.98719052    -1.14334917
Ti      2.78626703     0.51715498     4.54004399    -0.42390513    -4.87801803    -3.03137212
Ti      0.04696602     4.38863400     4.61135200    -1.65451501     1.47079214    -0.77457571
Ti      5.82644600     0.47754500     4.50546400    -0.31860017    -5.24194033    -1.49595553
O       4.46827501     5.41275099     1.02002900    -0.08184621    -0.91140010    -0.87152202
O       4.30350499     1.11452100     0.89333200     1.30856884     0.71331993    -0.48298551
O       1.40960299     5.43766000     0.58662198     1.12704632     0.12922678     1.57286343
O       1.48030901     1.37021400     0.78954198    -0.84054459    -0.69542144    -0.44337559
O       4.64792402     8.45723202     3.87412602     0.07220894     1.44925426     0.32818601
O       4.43746197     3.72040801     3.79364498    -0.92080803    -1.37710393    -0.34680544
O       1.53791900     8.74227001     3.63022102     0.77904429     2.20301739     2.77928230
O       1.63199402     3.57512499     3.75491699    -0.60913313    -0.03980326     0.95705468
O       3.01626402     6.02739502     3.47456798    -0.61565859    -2.04785923     2.00691337
O       3.05911600     1.57599002     2.91074301    -2.20046069    -2.55020747     3.37226633
O       0.04333999     5.78228901     3.36074598    -0.18711699    -1.06580596     0.35534510
O       5.83825702     1.55765398     3.05114998     0.41179601     0.09072038     0.37214418
O       2.99600902     7.35191600     1.53490603     0.07531458     0.24967915     0.69236080
O       2.90006897     3.51411498     1.60156199     0.47384523     0.23810969    -0.12968289
O       0.23811701     7.46061303     1.71792901    -0.00201523    -0.72380180     0.45365024
O       0.00225398     3.54906201     1.64744901     0.68523576    -1.25343845    -0.17031405
