# total energy = -19068.12001956 eV

CRYSTAL
PRIMVEC
        5.93400000     0.00000000     0.00000000
        0.00000000     9.29699974     0.00000000
        0.00000000     0.00000000     4.64899994
PRIMCOORD
22 1
Ti      4.44723302     6.55057902     2.67118098     2.27900792     1.34119486    -3.00374792
Ti      4.30172801     2.73508098     1.97276400     3.84080609    -0.88988639     0.53623256
Ti      1.78886300     7.66943399     2.38816899    -0.68991259    -0.06339443     0.78923280
Ti      1.68303501     2.28315101     1.90002801    -1.67295703    -0.61148723    -1.31474386
Ti      2.86738598     4.35508802     4.11193102    -1.80923583     1.04269148    -0.79127940
Ti      3.05001997     9.18711402     4.62559301    -1.33340185    -0.24214067     2.60616883
Ti      5.71020602     4.68736403     4.63385299     1.23642957     0.95712873    -1.39845387
Ti      5.71439499     9.07028100     0.56454402     1.32816091     0.32871052    -1.30998320
O       4.22113802     5.13600902     1.06544701     1.02814083     0.67145335    -0.50967100
O       4.35021800     0.69191100     1.36810697     0.22747072     1.83904881    -0.84126578
O       1.70189902     0.41047401     1.99879201    -0.91661122     0.41832352    -2.23117227
O       4.43043402     8.15772399     4.05731099     1.03092302     1.97335018    -0.96139908
O       4.52704300     4.20454302     3.21241902     1.29739791    -0.36860994     1.08634831
O       1.38049898     8.32826501     4.06189498     0.93151154     2.13578611     1.69908022
O       1.22595298     4.04635702     3.33369698     0.38848380    -0.71666056     0.33670305
O       2.88743799     6.30780600     3.36183000    -2.83687015    -1.89547400     1.41086099
O       2.94251201     2.21915899     3.08829298     2.85659052    -0.57359893     4.24892027
O       0.04185400     6.42874200     3.58037702     0.56993871    -3.39743538     1.72205689
O       3.39433899     7.86479898     1.50125501    -1.24039164    -1.23879499     0.16192274
O       3.14429999     2.99299001     0.73863301    -3.00422152    -0.49695637    -1.26953511
O       0.04973102     7.84050101     1.73574303    -0.96894527    -2.01111070    -0.01759381
O       0.13142302     2.61715600     1.05435598    -2.54231521     1.79786229    -0.94868111
