# total energy = -19943.75971651 eV

CRYSTAL
PRIMVEC
        5.83907733     0.00000000     0.00000000
        0.92699897     6.14501664     0.00000000
        0.00000000     0.00000000    10.48034327
PRIMCOORD
24 1
Ti      2.66572340     3.64153111     3.88813264     0.07506673    -1.52498690     0.79606577
Ti      4.10035283     2.50348536     6.59221087    -0.07506673     1.52498690    -0.79606577
Ti      5.41348755     2.50348743     1.35199721    -0.17419770    -0.06874644    -0.22592009
Ti      1.35258869     3.64152927     9.12834642     0.17419770     0.06874644     0.22592009
Ti      2.20222404     0.56902290     1.35203923     0.07506673    -1.52498690    -0.79606577
Ti      4.56385220     5.57599375     9.12830439    -0.07506673     1.52498690     0.79606577
Ti      0.88908930     0.56902065     6.59216884     0.17419770     0.06874644    -0.22592009
Ti      5.87698694     5.57599600     3.88817467    -0.17419770    -0.06874644     0.22592009
O       2.17451691     2.16376475     5.34803900     1.49434371     1.63221865    -0.41288050
O       4.59155931     3.98125172     5.13230445    -1.49434371    -1.63221865     0.41288050
O       1.39788379     2.16378959     0.10790100    -0.83839669     0.44901145     0.57061876
O       5.36819250     3.98122694    10.37244220     0.83839669    -0.44901145    -0.57061876
O       4.12805994     0.90874333     0.10786701    -1.49434371    -1.63221865    -0.41288050
O       2.63801628     5.23627314    10.37247620     1.49434371     1.63221865     0.41288050
O       4.90469313     0.90871855     5.34807305     0.83839669    -0.44901145     0.57061876
O       1.86138304     5.23629799     5.13227045    -0.83839669     0.44901145    -0.57061876
O       0.77600049     3.73774746     2.83100223     0.34175116     0.70820266     0.93441123
O       5.99007573     2.40726895     7.64934127    -0.34175116    -0.70820266    -0.93441123
O       3.49483438     2.40721180     2.40920286     0.65154427     0.98827483     0.22503357
O       3.27124184     3.73780461     8.07114046    -0.65154427    -0.98827483    -0.22503357
O       0.31250112     0.66523907     2.40916934     0.34175116     0.70820266    -0.93441123
O       6.45357510     5.47977734     8.07117392    -0.34175116    -0.70820266     0.93441123
O       2.80774247     0.66529622     7.64937467    -0.65154427    -0.98827483     0.22503357
O       3.95833375     5.47972019     2.83096877     0.65154427     0.98827483    -0.22503357
