# total energy = -19515.74957089 eV

CRYSTAL
PRIMVEC
        5.17600016     0.00000000     0.00000000
        0.00000000     5.50899976     0.00000000
        0.00000000     0.00000000     9.26300011
PRIMCOORD
23 1
Ti      1.84359602     3.20512802     3.22350200     0.67358634    -0.65509496     3.64172061
Ti      3.36529002     2.19504702     5.86779898    -0.33591424     0.32888278    -2.57896167
Ti      4.47144399     2.14922901     1.45141000    -0.15651493    -2.08408712    -0.96352230
Ti      0.78663299     3.37500402     7.86858498     0.90887939     0.48331718     2.71462906
Ti      1.81678202     0.57166801     1.36248801    -0.30050216    -0.90839911    -2.57968543
Ti      3.41162298     5.17694098     7.87450197    -2.52347981     0.89019878     2.26422407
Ti      0.77010202     0.65800201     5.79457497    -0.48995551    -0.71065343    -2.83327369
Ti      4.38538802     4.82888602     3.42373098     0.20172394     0.83281456     3.16981322
O       1.80757101     1.88904398     4.72255003    -1.57333420    -0.41924655     0.43604126
O       3.34336102     3.57695103     4.57334601     0.61150523     0.38213241     0.22874908
O       0.70523801     2.35125099     0.24987797     0.11260433    -0.24884663    -0.15767399
O       3.46861701     0.95164199     0.05515001     0.65051248     0.15776783     0.18214576
O       1.73102102     4.84009500     8.93783497     0.05854558     0.07748639     1.26444818
O       4.32885702     0.74323701     4.81969400    -1.41183981     1.68328284     0.09065327
O       0.76969900     4.76371203     4.45541802     1.92069191    -1.23073740     0.54396875
O       0.04103801     3.20120300     2.83529699    -0.67327807    -0.01612365    -1.30674721
O       5.08219201     2.18121401     6.78575402    -0.75979572    -0.85180011    -0.32200816
O       2.78957301     1.72067502     2.42227399    -0.01946634     1.41307419    -0.64296243
O       2.38668698     3.23464600     7.19952798     2.64100909     0.00931614    -0.76917536
O       0.03555600     0.58848601     2.30777998     1.01126770     0.37615562    -2.06590401
O       5.11475303     4.87286600     7.08908302    -0.94978720     0.00374121     0.60540812
O       2.53240398     0.50299001     6.54049201     0.24923203    -0.17997755     1.03791899
O       2.60138901     4.70597598     2.50571699     0.15431021     0.66679683    -1.95980637
