# total energy = -19959.62561924 eV

CRYSTAL
PRIMVEC
        5.93400000     0.00000000     0.00000000
        0.00000000     9.29699974     0.00000000
        0.00000000     0.00000000     4.64899994
PRIMCOORD
24 1
Ti      4.52237698     6.73789602     2.19909999    -1.59014202     0.50865875     1.51849075
Ti      4.46963902     2.59388300     2.29636801     0.79159025    -2.43273475    -0.17369042
Ti      1.53899498     6.85733001     2.07321100     0.82752991     0.50977667     2.04708456
Ti      1.46372899     2.31556201     2.41596598     0.00482519    -0.97601580     0.35308587
Ti      2.92796402     4.59215800     0.07844502     0.06239118    -0.15539393    -2.13450775
Ti      2.93940198     0.03339601     0.14270201     1.10120903     0.69430404    -0.80352249
Ti      0.00852002     4.67390700     4.53113201     0.31863873    -1.39903597    -0.32897534
Ti      5.92001401     9.21966102     0.16359298    -0.76376473     0.49305986    -0.73822750
O       4.46709701     5.51754100     0.79878703    -0.23215682     0.75335665     0.32380408
O       4.34291298     0.91895000     1.14506702     0.60976100    -0.02861048    -0.42175029
O       1.47544799     5.59714799     0.73871498    -0.03525009     0.35426369     0.14748316
O       1.44534198     0.91810501     1.08629199    -0.22688683    -0.22756508    -0.22391103
O       4.41217900     8.49038698     3.89187002     0.64617143    -0.12868967    -0.17655618
O       4.46024702     3.86766899     3.66482900    -0.99081199    -0.03346061     0.05195687
O       1.45679301     8.40723900     3.98663100    -0.68169689    -0.00358412    -0.88207974
O       1.47561600     3.79939899     3.67302898     0.77512618     0.72537763     0.60495097
O       2.92872498     6.08806498     3.15528301     0.26172040    -0.49665890     0.21418146
O       2.95218097     1.58447199     3.35484200    -0.11653658     0.02107894    -0.24811695
O       0.01484099     5.82644002     2.98924598     0.22497315     1.08980413     0.50707161
O       5.90505300     1.71347202     3.30589400    -0.19879726    -1.03604363     0.06542329
O       3.00752598     7.66662998     1.37100898     0.07319291     1.75689098    -0.53460299
O       2.96957302     3.21672600     1.23584701    -0.12182046     0.12956822     1.02627626
O       5.90353299     7.84040200     1.53951802     0.09503444     0.71429129    -0.36349730
O       0.07836602     3.41676002     1.36776698    -0.83429963    -0.83263741     0.16962885
