# total energy = -4988.10810225 eV

CRYSTAL
PRIMVEC
        3.09000373     0.00000000     0.00000000
        1.42050992     4.62849621     0.00000000
       -0.00000946    -0.00006345     4.89821682
PRIMCOORD
6 1
Ti      2.25525216     2.31421643     2.44910841     0.00000000     0.00000000     0.00000000
Ti      0.00000000     0.00000000     0.00000000     0.00000000     0.00000000     0.00000000
O       1.82183649     0.90201347     0.95459030    -0.82239182     0.48046223     0.29961976
O       2.68866787     3.72641938     3.94362647     0.82239182    -0.48046223    -0.29961976
O       0.43341178     1.41217727     3.40369980     0.82247024    -0.47968678     0.29872425
O       0.98708888     3.21625535     1.49451703    -0.82247024     0.47968678    -0.29872425
