# total energy = -19908.31236457 eV

CRYSTAL
PRIMVEC
        6.59428821     0.00000000     0.00000000
        2.38345088     6.60120746     0.00000000
        0.00000000     0.00000000    11.99292444
PRIMCOORD
24 1
Ti      3.80254319     3.91186932     4.44928945    -0.26007824    -2.01580785     0.56724779
Ti      5.17519614     2.68933796     7.54363512     0.26007824     2.01580785    -0.56724779
Ti      6.65816877     2.68934020     1.54712495    -0.00000874    -0.90668393     0.00813934
Ti      2.31957060     3.91186728    10.44579975     0.00000874     0.90668393    -0.00813934
Ti      2.61081792     0.61126577     1.54717304    -0.26007824    -2.01580785    -0.56724779
Ti      6.36692143     5.98994165    10.44575167     0.26007824     2.01580785     0.56724779
Ti      1.12784519     0.61126334     7.54358704     0.00000874     0.90668393     0.00813934
Ti      7.84989418     5.98994414     4.44933753    -0.00000874    -0.90668393    -0.00813934
O       2.92638748     2.32439729     6.11989754     1.81863116     2.05315930    -0.72278288
O       6.05135184     4.27680999     5.87302703    -1.81863116    -2.05315930     0.72278288
O       2.04931204     2.32442392     0.12347391    -0.44861524    -0.43172515     1.35711000
O       6.92842736     4.27678342    11.86945033     0.44861524     0.43172515    -1.35711000
O       4.85962655     0.97620631     0.12343499    -1.81863116    -2.05315930    -0.72278288
O       4.11811278     5.62500098    11.86948924     1.81863116     2.05315930     0.72278288
O       5.73670205     0.97617967     6.11993646     0.44861524     0.43172515     1.35711000
O       3.24103721     5.62502763     5.87298811    -0.44861524    -0.43172515    -1.35711000
O       1.68933563     4.01522847     3.23958809     0.58514242     2.34247511     2.28745991
O       7.28840370     2.58597881     8.75333648    -0.58514242    -2.34247511    -2.28745991
O       4.47042178     2.58591732     2.75691231     0.61228993     1.98611082     1.34638541
O       4.50731754     4.01528996     9.23601206    -0.61228993    -1.98611082    -1.34638541
O       0.49761034     0.71462479     2.75687399     0.58514242     2.34247511    -2.28745991
O       8.48012899     5.88658250     9.23605038    -0.58514242    -2.34247511     2.28745991
O       3.31559225     0.71468628     8.75337466    -0.61228993    -1.98611082     1.34638541
O       5.66214708     5.88652101     3.23954984     0.61228993     1.98611082    -1.34638541
