# total energy = -19074.92274001 eV

CRYSTAL
PRIMVEC
        7.60600008     0.00000000     0.00000000
        0.00000000     7.60600008     0.00000000
       -1.89786986    -1.89786986     4.85670466
PRIMCOORD
22 1
Ti      3.74757502     6.58327599     1.24428802    -0.47065526     0.93051060    -0.90551510
Ti      3.81023998     2.79618502     1.23831498     1.22581451    -0.51811065     1.60952069
Ti      0.12903500     6.80737001     1.06028700     0.28777391    -0.83340334     0.71540226
Ti      0.15827199     2.87772002     0.92794501    -1.28347846     0.30266163     1.60266895
Ti      5.79612123     2.87967522     3.52175181    -0.85651243     0.07947077    -0.85453756
Ti      6.05349124    -0.92528378     3.58283780    -1.24770720     0.03239951     0.63687560
Ti      1.86471125     2.77078420     3.77324779     1.03371112    -0.23639683    -0.83424101
Ti      1.09742524    -0.94088175     4.03569081     3.40820239    -0.26505744    -1.83830113
O       3.82509399     4.62517501     0.84789102    -0.33142612     2.66752463     0.01369756
O       3.94902698     0.90829999     0.82025400    -0.38511874    -1.56946289     1.77699573
O       0.24681002     4.79732399     0.59934298     0.11487539    -0.37004667     0.05721298
O      -0.16080998     1.02166601     0.76637598     0.64952389    -0.30662808    -0.03895711
O       5.64422725     4.88123023     4.04197379     0.36661271    -0.82658786    -1.57087828
O       5.49124422     0.89130224     3.84492183     1.13742072     0.86914992     0.29061575
O       1.76767522     4.78112122     4.16764682    -0.68193549    -0.39939634     0.54944109
O       2.00412421     0.86077220     4.21183979    -1.18383764     0.14242683    -1.97733873
O       3.77879225     2.88441824     3.28891879    -0.29588266     0.20069576    -0.33750344
O       0.14897123     2.83951221     3.00128783    -0.88267753     0.08167704     1.08208413
O       5.95910200     6.63896099     1.75870498    -1.30238250    -0.43008273    -0.74479050
O       5.72794399     2.91124398     1.55801901     0.50593673     0.17845725     0.79970003
O       1.87035900     6.65403000     2.04429501     0.02147798     0.16358701     0.11432903
O       1.93176600     2.61923699     1.41552401     0.17026391     0.10661160    -0.14648069
