# total energy = -4975.67313710 eV

CRYSTAL
PRIMVEC
        4.78398572     0.00000000     0.00000000
        0.00000000     2.49859627     0.00000000
        0.00000000    -0.00013179     6.66292244
PRIMCOORD
6 1
Ti      2.39199263     1.24923219     3.33146122     0.00000000     0.00000000     0.00000000
Ti      0.00000000     0.00000000     0.00000000     0.00000000     0.00000000     0.00000000
O       2.39199263     0.48691392     1.29850547     0.00000000     0.00292077     2.32157512
O       2.39199263     2.01155051     5.36441703     0.00000000    -0.00292077    -2.32157512
O       0.00000000     0.76226650     4.62996804     0.00000000    -0.00293440     2.31746135
O       0.00000000     1.73619793     2.03295440     0.00000000     0.00293440    -2.31746135
