# total energy = -19942.97670342 eV

CRYSTAL
PRIMVEC
        5.51735845     0.00000000     0.00000000
        2.51515816     5.30622089     0.00000000
        0.00000000     0.00000000    10.14772609
PRIMCOORD
24 1
Ti      3.49025741     3.14446156     3.76473398     1.91861908    -3.64082998     1.03193038
Ti      4.54225902     2.16175926     6.38299217    -1.91861908     3.64082998    -1.03193038
Ti      5.78304377     2.16176106     1.30908856    -4.26711546    -0.12718352     1.11607156
Ti      2.24947276     3.14445997     8.83863775     4.26711546     0.12718352    -1.11607156
Ti      2.23267846     0.49135119     1.30912923     1.91861908    -3.64082998    -1.03193038
Ti      5.79983800     4.81486979     8.83859708    -1.91861908     3.64082998     1.03193038
Ti      0.99189367     0.49134924     6.38295150     4.26711546     0.12718352     1.11607156
Ti      7.04062285     4.81487173     3.76477470    -4.26711546    -0.12718352    -1.11607156
O       2.63190868     1.86841056     5.17830695     1.01970118     1.74750388    -1.17266207
O       5.40060776     3.43781026     4.96941925    -1.01970118    -1.74750388     1.17266207
O       1.89807277     1.86843199     0.10447654     0.88222964    -0.93264899     0.70469182
O       6.13444374     3.43778893    10.04324938    -0.88222964     0.93264899    -0.70469182
O       4.14302878     0.78469979     0.10444358    -1.01970118    -1.74750388    -1.17266207
O       3.88948766     4.52152108    10.04328229     1.01970118     1.74750388     1.17266207
O       4.87686475     0.78467840     5.17833986    -0.88222964     0.93264899     0.70469182
O       3.15565164     4.52154249     4.96938628     0.88222964    -0.93264899    -0.70469182
O       1.73032012     3.22754437     2.74115399     0.54741198     1.12615363     1.09874875
O       6.30219625     2.07867646     7.40657221    -0.54741198    -1.12615363    -1.09874875
O       3.94442143     2.07862708     2.33274136     1.55846730     0.54723329    -0.27463480
O       4.08809501     3.22759374     7.81498462    -1.55846730    -0.54723329     0.27463480
O       0.47274114     0.57443385     2.33270895     0.54741198     1.12615363    -1.09874875
O       7.55977524     4.73178698     7.81501703    -0.54741198    -1.12615363     1.09874875
O       2.83051602     0.57448322     7.40660452    -1.55846730    -0.54723329    -0.27463480
O       5.20200041     4.73173760     2.74112157     1.55846730     0.54723329     0.27463480
