# total energy = -39035.42559153 eV

CRYSTAL
PRIMVEC
        5.93200024     0.00000000     0.00000000
        0.00000000     9.29399984     0.00000000
        0.00000000     0.00000000     9.29399984
PRIMCOORD
46 1
Ti      4.37774998     7.00638998     6.93134100    -1.42289118     0.00805270     0.17801014
Ti      4.46681898     6.83249498     2.43873299    -1.50377221     0.47986702     0.43814674
Ti      4.43344499     2.27287497     7.03597098    -1.21523827    -0.47596099     0.10106779
Ti      4.45280901     2.55119601     2.10645799     0.64972649    -0.32943248     0.24826350
Ti      1.27917800     6.91422402     7.00513397     2.79367534    -1.08272125     0.13404888
Ti      1.41526900     6.99437802     2.25367701     1.76949659    -0.13938881     0.17520943
Ti      1.38806997     2.47907402     6.98749300     1.13185685    -0.79076184     0.15166558
Ti      1.54280802     2.08609202     2.51181999    -1.20826518     1.49150444    -0.75897708
Ti      3.00156200     4.60502801     4.66819998    -0.62582937     0.17658652    -0.01017977
Ti      2.96852700     4.83328201     9.23579600     0.33974081     0.51622243    -0.84841036
Ti      2.88324601     0.00312299     4.70801199     0.93364272    -0.38835576     0.64543506
Ti      3.01107898     0.01741401     0.08218498     0.09998587     0.28469527    -0.46226549
Ti      0.01069203     4.63700201     4.55785001     0.77432503    -0.52876813     0.06790517
Ti      0.00397100     4.67720298     0.01645598    -0.01665330    -1.04735803     0.47804924
Ti      5.90958101     9.15663199     4.78057098    -0.73149198     0.48993983     0.10505531
Ti      0.06124798     9.19462300     0.01409998    -0.15126037     0.68033626    -0.42595225
O       4.58439698     5.54300099     5.38525500    -0.76977083     0.99839264     1.48489207
O       4.56562098     5.65756701     0.95679602    -1.11611527    -1.51912195    -0.79444546
O       4.46364498     0.74431199     5.78315999    -0.32779392     0.62880491    -1.47624982
O       4.62215198     1.11119502     0.83427000    -0.61544853    -1.19445141    -0.10432461
O       1.50620800     5.58709600     5.51019702    -0.46625122     0.06061455     0.37325464
O       1.47355602     5.70166902     0.72243601     0.45081560     0.13438827     1.43020186
O       1.41155698     0.90374801     5.58590102     0.88930609     0.23035473    -0.85978313
O       1.44598800     0.82939199     1.00104101     0.23784153     0.29827533     0.40364972
O       4.44262399     8.36301402     8.30670199     0.18298522     0.35512964     0.75855053
O       4.50401601     8.28141801     3.95852402    -0.20734078    -0.05903358    -1.71885226
O       4.48333799     3.77639200     8.38874600    -0.52499169    -0.15401376     0.83882169
O       4.40636598     3.90036601     3.53109798     0.37992897    -1.42214351    -0.07295636
O       1.62129601     8.58393499     8.29498802    -1.16987371    -1.49616019     0.17457643
O       1.45434101     8.42816299     3.64300902    -0.22912446     0.60556367     0.52599185
O       1.58738601     3.98558699     8.31900298    -0.46129927    -2.21998334    -0.36482682
O       1.58110801     3.70285102     3.76876000    -0.34833601    -1.10688500    -0.75930387
O       2.90095598     6.08237898     7.86064102     1.06749312     0.43137728    -0.25386542
O       2.94866602     6.04497398     3.23429299    -0.27054880     0.62991177    -0.70590795
O       2.94401699     1.46529101     7.96721399     0.34089807     0.94018130    -0.41027725
O       3.12211598     1.44816001     3.14202098     0.82887949    -0.41925966     0.56432033
O       5.78952498     5.95552598     7.88979901     0.58971564     1.43419299    -1.05711640
O       0.06567799     5.81322800     3.06559202     0.39012211     1.92761666    -0.15973164
O       0.00555599     1.39910300     7.77263398     0.83543837     0.53713502     0.89127298
O       2.94090400     7.77998002     5.93872201    -0.35443004     0.37421623     0.32954459
O       2.95036701     7.84648902     1.38259701     0.47494489     0.27535085     0.33856505
O       3.02938899     3.17411701     5.92361702    -0.04042547    -0.16463988     1.00364540
O       0.06068499     7.90706601     6.14617098    -0.85605889    -0.10681189    -0.27116792
O       5.86284598     7.81554501     1.41686198     0.18075093     0.95640342    -0.26950493
O       0.03581302     3.29658599     6.06310899    -0.43809891    -0.31919409    -0.11782239
O       0.21548098     3.21940702     1.45708199    -0.27026032     0.01933213     0.06177746
