# total energy = -19901.10500494 eV

CRYSTAL
PRIMVEC
        6.75476473     0.00000000     0.00000000
        1.76966228     6.96790002     0.00000000
        0.00000000     0.00000000    12.18659450
PRIMCOORD
24 1
Ti      3.49697764     4.12917130     4.52113987    -0.32946591    -1.70815776     0.57720156
Ti      5.02744957     2.83872917     7.66545531     0.32946591     1.70815776    -0.57720156
Ti      6.54651107     2.83873158     1.57210907     0.29192059    -0.36990783    -0.28346089
Ti      1.97791617     4.12916917    10.61448625    -0.29192059     0.36990783     0.28346089
Ti      2.61214664     0.64522135     1.57215793    -0.32946591    -1.70815776    -0.57720156
Ti      5.91228060     6.32267940    10.61443739     0.32946591     1.70815776     0.57720156
Ti      1.09308504     0.64521867     7.66540645    -0.29192059     0.36990783    -0.28346089
Ti      7.43134219     6.32268201     4.52118873     0.29192059    -0.36990783     0.28346089
O       2.76105387     2.45351620     6.21872618     1.74077658     1.90631969    -0.55733284
O       5.76337327     4.51438428     5.96786900    -1.74077658    -1.90631969     0.55733284
O       1.86263153     2.45354432     0.12546786    -0.78417878     0.16987053     0.89249297
O       6.66179576     4.51435628    12.06112698     0.78417878    -0.16987053    -0.89249297
O       4.87854225     1.03043412     0.12542831    -1.74077658    -1.90631969    -0.55733284
O       3.64588496     5.93746635    12.06116653     1.74077658     1.90631969     0.55733284
O       5.77696473     1.03040605     6.21876572     0.78417878    -0.16987053     0.89249297
O       2.74746242     5.93749450     5.96782946    -0.78417878     0.16987053    -0.89249297
O       1.32182514     4.23827194     3.29190339     0.52611064     1.57343833     1.70232289
O       7.20260200     2.72962855     8.89469179    -0.52611064    -1.57343833    -1.70232289
O       4.31604897     2.72956357     2.80143298     0.53843677     1.64761957     0.91450882
O       4.20837825     4.23833698     9.38516199    -0.53843677    -1.64761957    -0.91450882
O       0.43699412     0.75432178     2.80139406     0.52611064     1.57343833    -1.70232289
O       8.08743310     6.21357877     9.38520092    -0.52611064    -1.57343833     1.70232289
O       3.32354722     0.75438675     8.89473064    -0.53843677    -1.64761957     0.91450882
O       5.20087999     6.21351373     3.29186447     0.53843677     1.64761957    -0.91450882
