# total energy = -19914.07584221 eV

CRYSTAL
PRIMVEC
        7.28228399     0.00000000     0.00000000
        0.00002385     3.32166520     0.00000000
        0.00000000     0.00000000    11.08306705
PRIMCOORD
24 1
Ti      2.63949170     1.96841573     4.11173883    -0.50935089     0.40054742     0.94156661
Ti      4.64281581     1.35324952     6.97132838     0.50935089    -0.40054742    -0.94156661
Ti      6.28050905     1.35325065     1.42975045    -0.50796661    -0.40063510    -0.94009157
Ti      1.00179846     1.96841471     9.65331687     0.50796661     0.40063510     0.94009157
Ti      2.63947994     0.30758319     1.42979491    -0.50935089     0.40054742    -0.94156661
Ti      4.64282758     3.01408212     9.65327241     0.50935089    -0.40054742     0.94156661
Ti      1.00178670     0.30758195     6.97128392     0.50796661     0.40063510    -0.94009157
Ti      6.28052082     3.01408335     4.11178329    -0.50796661    -0.40063510     0.94009157
O       2.30489717     1.16961477     5.65560432     4.78713001    -0.50467611     1.10798235
O       4.97741034     2.15205043     5.42746289    -4.78713001     0.50467611    -1.10798235
O       1.33630402     1.16962817     0.11410638    -4.78592339    -0.50482807     1.10754398
O       5.94600355     2.15203708    10.96896052     4.78592339     0.50482807    -1.10754398
O       4.97739863     0.49121783     0.11407043    -4.78713001     0.50467611     1.10798235
O       2.30490888     2.83044743    10.96899647     4.78713001    -0.50467611    -1.10798235
O       5.94599184     0.49120443     5.65564028     4.78592339     0.50482807     1.10754398
O       1.33631563     2.83046082     5.42742694    -4.78592339    -0.50482807    -1.10754398
O       0.26459662     2.02042506     2.99381293     0.38399800    -0.30666896     0.51682227
O       7.01771090     1.30124014     8.08925428    -0.38399800     0.30666896    -0.51682227
O       3.90574787     1.30120920     2.54775591     0.38514343     0.30675612    -0.51661426
O       3.37655964     2.02045606     8.53531115    -0.38514343    -0.30675612     0.51661426
O       0.26458490     0.35959246     2.54772054     0.38399800    -0.30666896    -0.51682227
O       7.01772261     2.96207280     8.53534651    -0.38399800     0.30666896     0.51682227
O       3.37654793     0.35962340     8.08928959    -0.38514343    -0.30675612    -0.51661426
O       3.90575958     2.96204185     2.99377757     0.38514343     0.30675612     0.51661426
