# total energy = -4990.60510948 eV

CRYSTAL
PRIMVEC
        3.82335809     0.00000000     0.00000000
        0.19104032     3.81858229     0.00000000
       -2.00723315    -1.90932343     4.88098180
PRIMCOORD
6 1
Ti      0.14312579     2.86408171     1.22024532    -0.00010207     0.00010207     0.00000000
Ti      1.86403899    -0.95482332     3.66073622     0.00010207    -0.00010207     0.00000000
O       0.04780030     0.95463932     0.79507203    -0.00014681    -0.00014604    -0.10257008
O       1.95936431     0.95461896     4.08590956     0.00014681     0.00014604     0.10257008
O      -0.04778144    -0.95462139     3.23556293    -0.00014604    -0.00014681    -0.10257008
O       2.05494605     2.86387962     1.64541872     0.00014604     0.00014681     0.10257008
