# total energy = -39033.47144267 eV

CRYSTAL
PRIMVEC
        5.93200024     0.00000000     0.00000000
        0.00000000     9.29399984     0.00000000
        0.00000000     0.00000000     9.29399984
PRIMCOORD
46 1
Ti      4.42760002     7.13259198     6.95252799     0.72368868    -0.13091702    -0.64387903
Ti      4.43756400     6.75445102     2.37838302     0.10941719     1.19042223     0.46504049
Ti      4.42701998     2.21412900     7.02599499     0.75444602    -0.03016959     0.01964761
Ti      4.30245801     2.71287099     2.04386902     0.02976053    -1.75205807     1.63172243
Ti      1.46565699     6.86304200     6.96094302    -0.59284287     1.07527456     1.01149550
Ti      1.51777899     7.03923601     2.22276797    -0.48907594    -0.02693823    -0.40848519
Ti      1.51232698     2.45095503     6.83583599    -1.29746167    -0.95967644     0.95356955
Ti      1.30485198     1.91128901     2.79563701     1.03429451     0.99029829    -1.28785602
Ti      2.97587399     4.65306101     4.80868998     0.68149197     0.09812773    -1.58132905
Ti      2.98728897     4.89401700     8.98626797    -0.65334147    -2.93029404     1.83805868
Ti      2.97585102     9.20474298     4.60997598     1.15850198     0.54077262     0.38060208
Ti      2.96635599     9.28993602     9.28466902    -1.13059778     0.43740060     0.71663331
Ti      0.02484302     4.64000197     4.63302202    -0.60491215    -0.53417722    -0.44932821
Ti      5.91722101     4.73498199     0.08777299     1.30209711    -0.66433577    -1.68011909
Ti      0.03706903     9.05221399     4.79606502    -0.71737559     1.41173002    -0.88100965
Ti      5.92115999     0.08972401     9.26570002     0.64981006     0.09333416     0.93056717
O       4.58001100     5.65177898     5.59026498    -0.31135994    -0.28019430    -0.52028940
O       4.51396201     5.79542801     0.64893498    -1.06356627    -0.93595852     1.25249717
O       4.38404402     0.86892201     5.59192401     0.79644655    -0.44061011    -0.69405284
O       4.46298700     0.97462998     0.79179802     0.08834879     0.98446085     1.16359533
O       1.48678900     5.60287401     5.55598398    -0.12635074    -0.07035364    -0.16628719
O       1.52229600     5.77101002     0.66029901     0.23138060    -1.12321383     0.52750366
O       1.41071802     0.78148399     5.76452501     0.15241248     0.79250376    -1.88750075
O       1.55980498     0.79148099     1.11754202    -0.94449175     0.51525029    -0.24767137
O       4.41628499     8.51714800     8.35625801     0.93677279    -1.34044282    -0.67205345
O       4.47428001     8.08098302     3.97617102    -0.16850605     1.05362741    -0.84734464
O       4.50450101     3.86612099     8.21458800    -0.33891292    -0.37976005     1.50606074
O       4.38284998     3.89659001     3.68839702     0.51436609    -0.70635532    -0.56910541
O       1.55880499     8.35989600     8.38085099    -0.50150517     0.35329105     0.39646657
O       1.52033698     8.18029298     3.80751800    -0.65839780     1.42944930     0.08680536
O       1.48647800     3.74082399     8.33776798     0.63553786     0.82475981     0.62620963
O       1.65182901     3.71619698     3.84183001    -1.31117337    -0.74359802    -0.25916112
O       3.10282297     5.97785102     7.66885899    -0.74811005     1.84097739    -1.56027916
O       2.85263998     5.91663701     3.13550099     0.93042473     0.78268677    -0.32223159
O       2.95035298     1.51494599     7.94127599    -0.14538514    -0.15376102    -0.14590964
O       3.09405498     1.54105898     3.16351601    -0.29731657    -0.38152125     0.10854996
O       0.02989301     5.97345398     7.90255101     0.05038490     1.43966095    -1.05484200
O       0.04128699     5.90818600     3.08210198    -0.11296814    -0.11945427     0.06285990
O       0.00904999     1.58972799     7.96340000     0.19240883    -1.10194154     0.16799954
O       2.84873402     8.05885500     6.05042000     0.86881259    -2.08115940     1.45076169
O       3.00542398     7.87911799     1.44187402     0.43542677     0.00917267     0.19444720
O       3.00515903     3.14993901     5.98773801     0.22080539     0.67551981     0.15618840
O       0.07584502     7.92759697     6.17479401    -0.21263597    -1.02947292     0.92665806
O       5.87901298     7.91599402     1.49988502    -0.01463961     0.10046589    -0.18916590
O       5.89336702     3.13358601     5.90271700     0.43410316     0.48408465     0.11864668
O       0.13388999     3.01897098     1.71008200    -0.49021314     0.79309306    -0.62468523
