# total energy = -19898.31001619 eV

CRYSTAL
PRIMVEC
        6.81712078     0.00000000     0.00000000
        3.10767138     6.55624408     0.00000000
        0.00000000     0.00000000    12.53829618
PRIMCOORD
24 1
Ti      4.31248151     3.88522414     4.65161842    -0.28477189    -1.96289787     0.34854042
Ti      5.61231042     2.67101986     7.88667782     0.28477189     1.96289787    -0.34854042
Ti      7.14539543     2.67102208     1.61747962    -0.04960405    -1.32337968     0.30842631
Ti      2.77939663     3.88522217    10.92081683     0.04960405     1.32337968    -0.30842631
Ti      2.75864599     0.60710220     1.61752987    -0.28477189    -1.96289787    -0.34854042
Ti      7.16614600     5.94914200    10.92076658     0.28477189     1.96289787     0.34854042
Ti      1.22556093     0.60709978     7.88662757     0.04960405     1.32337968     0.30842631
Ti      8.69923111     5.94914440     4.65166874    -0.04960405    -1.32337968    -0.30842631
O       3.25192562     2.30856497     6.39819657     1.74919978     1.93971679    -0.79177640
O       6.67286631     4.24767903     6.14009974    -1.74919978    -1.93971679     0.79177640
O       2.34521491     2.30859145     0.12908881    -0.05423873    -0.99003089     1.71787653
O       7.57957712     4.24765266    12.40920717     0.05423873     0.99003089    -1.71787653
O       5.11903075     0.96955696     0.12904808    -1.74919978    -1.93971679    -0.79177640
O       4.80576120     5.58668711    12.40924783     1.74919978     1.93971679     0.79177640
O       6.02574154     0.96953053     6.39823724     0.05423873     0.99003089     1.71787653
O       3.89905034     5.58671355     6.14005901    -0.05423873    -0.99003089    -1.71787653
O       2.13794361     3.98787935     3.38690661     0.62870206     2.96983608     2.78711620
O       7.78684826     2.56836467     9.15138970    -0.62870206    -2.96983608    -2.78711620
O       4.87363609     2.56830365     2.88228139     0.46784685     2.16362576     1.88767893
O       5.05115585     3.98794034     9.65601465    -0.46784685    -2.16362576    -1.88767893
O       0.58410804     0.70975721     2.88224134     0.62870206     2.96983608    -2.78711620
O       9.34068383     5.84648680     9.65605470    -0.62870206    -2.96983608     2.78711620
O       3.49732027     0.70981821     9.15142962    -0.46784685    -2.16362576     1.88767893
O       6.42747166     5.84642579     3.38686656     0.46784685     2.16362576    -1.88767893
