# total energy = -19933.58627865 eV

CRYSTAL
PRIMVEC
        5.14832305     0.00000000     0.00000000
        2.57855022     4.83472931     0.00000000
        0.00000000     0.00000000     9.53518724
PRIMCOORD
24 1
Ti      3.39406598     2.86505611     3.53748647     4.24500808    -4.88466742     1.15255193
Ti      4.33280742     1.96967332     5.99770086    -4.24500808     4.88466742    -1.15255193
Ti      5.49060090     1.96967504     1.23006910    -8.97026395     1.93598149     1.93557937
Ti      2.23627267     2.86505461     8.30511829     8.97026395    -1.93598149    -1.93557937
Ti      2.10479107     0.44769162     1.23010735     4.24533641    -4.88475612    -1.15251079
Ti      5.62208243     4.38703799     8.30508009    -4.24533641     4.88475612     1.15251079
Ti      0.94699751     0.44768976     5.99766262     8.97073010    -1.93638027     1.93026618
Ti      6.77987598     4.38703980     3.53752467    -8.97073010     1.93638027    -1.93026618
O       2.53742817     1.70239041     4.86573308    -0.36742826     0.90555213    -1.45242468
O       5.18944530     3.13233905     4.66945426     0.36742826    -0.90555213     1.45242468
O       1.85267668     1.70240988     0.09817010     2.09437822    -0.25436242    -1.30606073
O       5.87419684     3.13231963     9.43701693    -2.09437822     0.25436242     1.30606073
O       3.90017029     0.71497438     0.09813916     0.36750565    -0.90565677    -1.45269208
O       3.82670316     4.11975504     9.43704788    -0.36750565     0.90565677     1.45269208
O       4.58492183     0.71495495     4.86576397    -2.09437565     0.25439764    -1.30541229
O       3.14195158     4.11977453     4.66942331     2.09437565    -0.25439764     1.30541229
O       1.75547088     2.94075640     2.57569195     0.45591050    -1.98866470    -1.55711233
O       5.97140259     1.89397307     6.95949533    -0.45591050     1.98866470     1.55711233
O       3.77132813     1.89392791     2.19193200     2.29287105    -1.54931623    -2.84249855
O       3.95554534     2.94080155     7.34325514    -2.29287105     1.54931623     2.84249855
O       0.46619587     0.52339172     2.19190156     0.45575366    -1.98897632     1.55744272
O       7.26067759     4.31133770     7.34328557    -0.45575366     1.98897632    -1.55744272
O       2.66627033     0.52343687     6.95952572    -2.29291271     1.54919436    -2.84262197
O       5.06060313     4.31129254     2.57566152     2.29291271    -1.54919436     2.84262197
