# total energy = -19075.89416808 eV

CRYSTAL
PRIMVEC
        7.60600008     0.00000000     0.00000000
        0.00000000     7.60600008     0.00000000
       -1.89786986    -1.89786986     4.85670466
PRIMCOORD
22 1
Ti      3.69499401     6.62873798     1.37645702     0.42497960     1.30523309    -1.84615920
Ti      3.85741301     2.93062600     1.16321499     0.43928805    -0.87032877     1.45460755
Ti      0.05887901     6.54537499     0.99600202    -0.36350501     0.80769333     1.31328142
Ti      0.09963799     2.76869802     1.05113700    -0.25684225    -0.28080519     1.10083931
Ti      5.79857921     2.84162622     3.58664883    -0.55833171     0.19956499    -1.38402226
Ti      5.92443825    -0.92602378     3.53816979     0.09340976    -0.85966589     0.31945532
Ti      1.91207325     2.92708125     3.73741979     0.64719524    -0.10587704    -1.44798285
Ti      1.34685024    -0.91586876     3.91005980     1.69401771    -0.28229952    -0.89211913
O       3.59089500     4.84298500     0.80236897    -0.01029470    -1.46593352     0.47849456
O       4.03593402     0.90268701     0.86045999    -1.24914008     0.64153573     0.53305905
O       0.22693798     4.67792800     0.71125000    -0.16145454     0.25965092    -0.02207601
O      -0.15192298     0.89163297     0.63852501     0.34052757     0.44401297     0.59782284
O       5.70105321     4.71156124     3.97440881     0.18753659     0.62526655    -0.56449311
O       5.69750423     0.90795322     3.86552281     0.20525664    -0.07828729     0.38644518
O       1.89164621     4.78941824     4.23934780    -0.83413868     0.99971444    -0.90054207
O       2.07596722     0.93762620     4.11538380    -1.04664275    -0.24800022    -0.04173365
O       3.78009820     2.96549021     3.26806180     0.58586233    -0.15385693    -0.22979012
O       0.04590322     2.90820121     3.21189784     0.57103374    -0.41050454    -0.48492669
O       5.56353000     6.41972598     1.66713001     1.44285684     0.25229499     0.87746410
O       5.80597901     3.03073300     1.57870698    -0.46255526    -0.39107316     0.10201473
O       1.82042001     6.75347998     1.91261698    -0.68592815    -0.35585752     0.81305254
O       1.99269203     2.72025597     1.59686702    -1.00313067    -0.03247742    -0.16269150
