# total energy = -19074.19823441 eV

CRYSTAL
PRIMVEC
        5.93400000     0.00000000     0.00000000
        0.00000000     9.29699974     0.00000000
        0.00000000     0.00000000     4.64899994
PRIMCOORD
22 1
Ti      4.46772800     7.02355802     2.33068299    -1.36393705    -1.35900593     0.41794017
Ti      4.44442103     2.33469097     2.23892899    -0.51752701    -0.58284385     0.43755384
Ti      1.40211100     7.04874501     2.43046502     1.76514371    -0.65076111     1.86365068
Ti      1.61250299     2.42933898     2.12239099    -0.30433645    -0.41982376     0.88564175
Ti      3.05864699     4.77767601     4.60444899    -0.22438823    -0.17864854    -0.58368383
Ti      2.98173902     9.27697398     0.09014799    -0.52932580     0.26176874    -1.03072067
Ti      5.83083102     4.51169602     4.46473402     0.61361251    -0.56782526    -0.31744960
Ti      5.91496402     9.11567499     0.19346699     0.44409190     0.89718704    -0.38252630
O       4.53280098     5.56595701     0.88715000    -0.42662356     0.43232036     1.16836190
O       4.43570997     0.95058898     0.83884098     0.58575665    -0.33092990     0.15205278
O       1.51606202     0.80433598     1.05885399    -0.44997047     0.88426107    -1.06598002
O       4.58657698     8.23289700     3.88850101    -1.04529086     1.04237574     0.04277983
O       4.29029498     3.84606602     3.52458402     0.56156025    -0.93200544     0.62241006
O       1.41937102     8.27813102     3.83227101     0.19903225     0.63882913     0.74232198
O       1.49946602     3.90216998     3.69521500     0.06824173    -0.47469652    -0.22189863
O       3.02109202     6.12224200     3.27730499    -0.99935037    -0.14555046     0.05812829
O       2.84192801     1.29026902     3.13186300     0.60986487     0.62527247     0.89183169
O       5.80095399     6.10236399     3.42511102     1.28553226    -0.03471068    -1.74516237
O       2.90472298     7.98312598     1.61764299     0.16277686    -0.39137347    -1.18108810
O       3.09403699     3.11163399     1.31444602    -0.70403773     1.78770952    -1.05955458
O       0.03029598     8.04557000     1.64962901    -0.38999921    -0.63819304    -0.24915464
O       5.87445798     3.07013702     1.25022200     0.65917376     0.13664390     0.55454602
