# total energy = -39029.04208005 eV

CRYSTAL
PRIMVEC
        5.93200024     0.00000000     0.00000000
        0.00000000     9.29399984     0.00000000
        0.00000000     0.00000000     9.29399984
PRIMCOORD
46 1
Ti      4.38402200     7.15644999     6.70294498    -2.44356861    -2.38653175     0.57809116
Ti      4.38450102     6.72707001     2.44267801    -0.59484268     1.24067215    -0.83197972
Ti      4.41950598     2.53452100     7.19810200     0.24115877    -2.41421946    -0.03152097
Ti      4.45587401     2.52513901     1.93130402    -0.18496446    -0.04286853     0.47369637
Ti      1.45403298     6.98920600     7.15260901    -0.08760292    -1.80958241    -0.67714115
Ti      1.29696100     7.00491601     2.24605199     1.27410242     0.58104099    -2.64287803
Ti      1.51880300     2.72892199     6.90137099    -0.12641116    -1.82663192    -0.11700735
Ti      1.61331702     1.59748700     2.70979800    -0.95263393     0.99706646    -0.98677022
Ti      2.96790802     4.60354002     4.52670899    -1.89626333     0.62604457     1.50487444
Ti      3.13387203     4.79171900     9.16811302    -1.48464499     2.39884734    -0.53986064
Ti      2.94235902     0.31950500     4.89963798     2.46326635    -2.18380816    -1.21707558
Ti      2.94266399     9.13078501     9.25101699    -0.37572444     0.22523463     0.65051120
Ti      5.92811000     4.54489702     4.58269298     0.51982094     0.93952001     1.26852363
Ti      0.06157200     4.55957899     0.06923401     2.03154712     1.81609322    -0.97079081
Ti      5.79732802     9.02771801     4.64573201    -1.14025485     0.07764812    -1.16686244
Ti      5.86768901     0.06424302     9.28718499    -0.70058808     0.53933383    -0.15006172
O       4.59358800     5.49844802     5.74629501    -0.28794001     1.01680483    -2.22257090
O       4.53974998     5.17244599     1.13944202    -0.44184296     0.79576521     1.00067938
O       4.58952201     0.73799599     5.62345397     0.21543667     1.94218659     0.07835903
O       4.42733802     0.84987602     1.05981402     0.45282851    -0.72514855    -1.57945368
O       1.60126401     5.67846401     5.38453097    -1.49228425    -1.23358336     0.47747280
O       1.61084502     5.84943700     0.64472601    -0.03598826    -2.67586709     1.99379302
O       1.55959098     1.19129901     5.43924700    -2.79144851     0.41447972    -0.05901327
O       1.80782099     1.04945998     0.83070700    -1.07879749    -0.48168273     1.05574189
O       4.46199601     8.36609801     8.39678399     0.17578382     0.76099154    -1.10816439
O       4.12321202     8.17920001     4.06630499     3.00866850     0.74801955    -1.90054474
O       4.51620201     3.34653900     8.92290403    -1.24229143     0.47597668    -0.10297683
O       4.29086702     4.04998802     3.41319601     2.36730272    -1.73426552    -0.01644401
O       1.24709499     8.44463299     8.37839598     1.85944255    -0.56846238    -1.11047632
O       1.49047900     9.00512801     3.28736502    -1.93098944    -0.77782636     1.04704693
O       1.68541001     3.90720102     8.32125802    -0.16769384    -1.22267802     0.06713384
O       1.53350498     3.37033499     3.96609998    -0.67683185     1.21570827    -0.63573660
O       3.09375600     6.08535703     7.68230803    -0.69183295    -0.47567663     1.79161657
O       2.92640200     6.13544101     3.33043603    -1.54539401     0.56184076    -1.67106804
O       2.84397100     1.49134198     7.65103201     0.49975939     0.42467852     0.26368935
O       3.41076900     1.45329298     3.18552798    -0.21873000     0.65181269     1.03796424
O       0.05286899     5.87007798     7.93233898    -0.26266940     0.56028550    -0.18149475
O       5.91969100     6.15043599     3.39925701     0.33957421     0.65788307    -1.07581141
O       5.91329700     1.58002802     7.90859099     0.46711871    -0.49808380    -0.06665150
O       2.76545898     7.94632202     6.04903001    -0.16075803     0.71590517     0.69259991
O       2.76718399     7.76123799     1.20386798     1.56326267     0.84463187     0.95512738
O       3.14621101     3.46141401     5.99662998    -0.59166711    -1.49975768     1.99389124
O       5.85636298     7.83709899     5.99626803     3.65629466     0.15752949     0.52076197
O       5.75882402     7.54413000     1.00735600     0.39721502     0.90406166     3.74737371
O       5.71654599     3.47821602     6.19021699     1.68661602    -0.95428046    -0.31829858
O       0.27717500     2.72298298     1.71502600     0.38546044     1.22089239     0.18170558
