# total energy = -19074.48046013 eV

CRYSTAL
PRIMVEC
        7.60600008     0.00000000     0.00000000
        0.00000000     7.60600008     0.00000000
       -1.89786986    -1.89786986     4.85670466
PRIMCOORD
22 1
Ti      3.77309100     6.64758399     1.05502698     0.48118805    -2.05015677     0.60146584
Ti      3.67569201     2.64086102     1.33407802    -0.32376166     2.58068328     0.72951428
Ti      0.09025600     7.00716300     1.07887800    -0.86557608    -0.42407097     0.81632710
Ti     -0.24434998     3.00629898     1.41224501     0.30653089    -0.41998034    -0.09894431
Ti      5.59617621     2.93712821     3.76473883    -1.98719249     1.21811997    -1.21205190
Ti      5.86549123    -0.82991376     3.51510481     1.66249649    -0.46222744    -0.07190067
Ti      1.70233824     2.71874623     3.76262683     1.72124879    -0.17767229     0.21982966
Ti      2.05901122    -0.97609675     3.49905079    -1.01944741     0.82941582    -0.24886591
O       3.57971598     4.65683198     0.83825201    -0.11700246     0.89388651    -0.66300059
O       3.92357599     0.86575801     1.18236502    -0.21012246     0.84805478    -0.64966479
O       0.06359901     4.63263800     0.70320402    -0.17256505     1.18977174     0.62948368
O       7.27369000     1.42820299     0.49548099     0.07830555    -1.69937126     0.80291879
O       5.64943621     4.94085522     4.08731581     0.24464544    -0.06145813     0.00559601
O       0.18707321    -0.78938476     3.33823583    -2.81948306     0.93574023    -0.80862304
O       1.67405720     4.93010022     4.01295784     0.69624085    -1.86695686     0.67783586
O       2.07023724     0.85811822     4.06602579    -0.22625356    -0.03562985     0.77771837
O       3.67298923     3.02737823     3.40786180     0.06701711    -0.96639962    -0.36136071
O      -0.17520979     2.86524620     3.32445680    -0.38018171    -0.31899200     0.64987022
O       5.66793598     6.55486600     1.68645900     0.12093908     0.30793908    -0.84362297
O       5.46698002     3.17119098     1.69180401     0.90123396    -0.88778682     0.48651435
O       1.86338000     6.50650502     1.57275199     0.56670683     0.99467071    -0.36080638
O       1.68322801     2.75966798     1.84796998     1.27503264    -0.42758053    -1.07823313
