# total energy = -19071.45236617 eV

CRYSTAL
PRIMVEC
        5.17600016     0.00000000     0.00000000
        0.00000000     5.50899976     0.00000000
        0.00000000     0.00000000     9.26300011
PRIMCOORD
22 1
Ti      1.78801600     3.22584700     3.13621602    -0.65533124    -2.07510368     3.73877491
Ti      3.50065901     2.25791699     6.00800200     0.54884922    -0.38721496     0.94017024
Ti      4.52592602     2.19626202     1.25352798    -1.80263709    -0.98126086    -0.76611549
Ti      0.64761500     3.35208102     8.01508500     1.25355827     1.62066514     1.52000641
Ti      1.84032300     0.55837402     1.31998201    -1.08172444    -1.39764423    -2.84842263
Ti      3.32912801     5.12370702     7.97665901    -1.05588973    -0.80995256     2.09046834
Ti      0.67086599     0.53385401     5.93842202     1.00463682    -0.12219095    -0.68929527
Ti      4.38191900     4.76586699     3.58331697     0.22354593     1.73322165     0.44329255
O       3.25059202     3.46549201     4.66106201    -0.81124685     0.20869909    -0.96404577
O       0.78541202     2.15137498     0.22238700     1.44374001    -1.77439223     0.27232029
O       4.45884597     4.06204300     9.15327198    -1.45998605    -0.65049423    -0.46842380
O       3.27977799     1.03165402     9.25756101     1.26321533     0.68257492     0.34271172
O       1.57375499     4.92133102     9.01940998     0.47948803     0.31645432    -0.53044038
O       4.71836598     1.13639798     4.66435402    -1.83759151    -0.60637922     0.03798395
O       0.80296102     4.70538098     4.34063100     1.57671520    -0.88152156     1.23956580
O       5.13554800     3.16662497     2.74225303    -0.12587226     0.29008636    -0.86122295
O       0.27819001     2.65084797     6.36222002    -1.38803035    -1.61062524     0.01170752
O       2.83251998     1.78765098     2.31991698    -1.10248019     0.17257225     1.20755813
O       2.43614103     3.05307301     7.63303300     2.27140902     0.41239970    -2.45300713
O       0.00469100     0.51531302     2.12076498     0.73648583     0.09298347    -0.74016508
O       2.67556701     0.28224298     6.23348099    -1.16913169     1.64195902     0.63201956
O       2.60358001     4.34835900     2.24854700     1.68827746     4.12516352    -2.15544065
