# total energy = -19076.63571535 eV

CRYSTAL
PRIMVEC
        7.60600008     0.00000000     0.00000000
        0.00000000     7.60600008     0.00000000
       -1.89786986    -1.89786986     4.85670466
PRIMCOORD
22 1
Ti      3.78491001     6.51425498     1.06917702    -0.18115125     0.80862073     1.82270841
Ti      3.78298402     2.85610800     1.21782201    -0.35849959    -0.61360582    -0.36167490
Ti      0.01512902     6.72508200     1.11642398     0.21179110    -0.36131829     0.85907685
Ti     -0.04447899     2.94446202     1.21958301     0.55833146    -0.52146825     0.24713324
Ti      5.73059824     2.87399620     3.65434283     0.28324234    -0.49001825    -0.32267974
Ti      5.79997824    -0.94442777     3.70673381    -0.33595255     0.69193760    -0.79722714
Ti      1.94339022     2.83386123     3.61390982    -0.52633072    -0.90389711    -0.87915743
Ti      1.89864823    -0.99698280     3.77143584    -0.33457264     0.98849800    -1.60381001
O       3.59463502     4.67726600     0.69622501     0.57575377     0.65559401     0.69861321
O       3.70785201     0.87747902     0.78914801     0.35740533     0.38330072     1.10660810
O       0.05043398     4.78785902     0.79713700    -0.18023851    -0.23584995    -0.66690481
O      -0.07413398     0.97549000     0.87048298     0.14247902    -0.12269566    -0.34228312
O       5.77032924     4.79211821     4.02181579     0.23167319    -0.19446443     0.48163799
O       5.73069524     0.95319021     3.86540279    -0.15597320     0.08966391     1.02197172
O       1.85324022     4.70681621     4.06192980     0.07518628     0.40937505    -0.79423077
O       1.81419424     0.92630721     4.08603780     0.62988091    -0.53933100    -0.50402717
O       3.82493121     3.05744624     3.30425281    -0.01289126    -0.77584198    -0.71505388
O       0.04075422     2.82676422     3.22015882    -0.96983976     0.42569231    -0.63249778
O       5.62054001     6.37430601     1.83205598     0.20974425     0.95366288    -0.48637679
O       5.70044498     2.87776299     1.52255402    -0.48066611     0.21317256     0.72063832
O       1.91539299     6.65712400     1.77159002    -0.30529162    -0.14432224     0.43631431
O       1.87421898     2.95149299     1.57288698     0.56591981    -0.71670479     0.71122165
