# total energy = -4986.44433069 eV

CRYSTAL
PRIMVEC
        4.16981899     0.00000000     0.00000000
        1.41606134     3.92200978     0.00000000
       -2.79297820    -1.96103160     5.40756228
PRIMCOORD
6 1
Ti      1.06192578     2.94165777     1.35189063     0.00066952    -0.00066952     0.00000000
Ti      1.73097561    -0.98068010     4.05567177    -0.00066952     0.00066952    -0.00000000
O       0.35405877     0.98049704     0.88084776    -0.00072839    -0.00111252    -1.54138412
O       2.43884243     0.98048049     4.52671475     0.00072839     0.00111252     1.54138412
O      -0.35402496    -0.98047335     3.58462891    -0.00111252    -0.00072839    -1.54138412
O       3.14692609     2.94145084     1.82293361     0.00111252     0.00072839     1.54138412
