# total energy = -19073.50681379 eV

CRYSTAL
PRIMVEC
        5.17600016     0.00000000     0.00000000
        0.00000000     5.50899976     0.00000000
        0.00000000     0.00000000     9.26300011
PRIMCOORD
22 1
Ti      1.95981303     3.51509301     3.30043300     0.63206327    -0.11795840    -0.60249043
Ti      3.49229801     2.16058700     5.93703399    -0.35087009     0.43693729    -1.49433908
Ti      4.52480898     2.28092799     1.25234400    -1.76517945     0.42294303     0.16171294
Ti      0.58526797     3.05421302     8.11684298     0.80071998     2.83681024    -1.61347402
Ti      1.86540997     0.62124203     1.37715501     0.93775700    -0.57552803    -1.75925228
Ti      3.13287998     4.99100101     8.08163100    -0.30714178     1.15616484     1.50119082
Ti      0.66053799     0.10120398     5.94068700     0.27421674     0.84372376     0.41349576
Ti      4.52922501     4.96899602     3.41093098     0.19930376    -0.50553640    -0.33170123
O       3.59296800     3.32686800     4.20616802     0.77561675    -0.19672443     2.50683140
O       0.83550399     1.93036902     0.18329800     1.46260060    -0.98178922    -0.71998037
O       4.19772801     3.68034400     8.98647599     0.43674420    -0.74166918    -0.03984877
O       3.41102401     0.78831403     0.26739199     0.73625572     0.69600637    -1.76514422
O       1.69637102     4.72467398     9.20554400    -1.33322984    -0.30555798     0.17584167
O       4.31699102     0.79091297     4.73513301    -0.29782333    -0.13708099     0.90866625
O       1.21341402     5.02114803     4.21247899    -1.00597380    -0.58591195     1.71485497
O       0.48657298     3.56038000     2.17331800    -2.19350945    -0.13652666     0.71323020
O       4.94956701     1.74676103     6.95406398     0.69176353    -0.51328391     0.21827003
O       2.78796299     2.21168399     2.05660298    -0.82127750    -0.50859576     0.72915536
O       2.03025498     3.93409000     6.99590200    -0.93867592    -1.94599363    -1.73191090
O       0.04637699     0.75458998     2.05543202     0.26505589    -0.87434483     1.75686655
O       2.23630798     0.94145702     6.72231101     0.75853793     0.47161531    -0.19200183
O       2.83807602     4.82552400     2.40574000     1.04304577     1.26230028    -0.54997254
