# total energy = -19075.74698612 eV

CRYSTAL
PRIMVEC
        7.60600008     0.00000000     0.00000000
        0.00000000     7.60600008     0.00000000
       -1.89786986    -1.89786986     4.85670466
PRIMCOORD
22 1
Ti      3.81077202     6.71162200     1.06190200     0.45910638     1.63336691    -0.17859429
Ti      3.91559298     3.03366898     1.22915000     0.19385688    -2.20560804     0.58961485
Ti      0.04248298     6.67235901     1.13748603    -1.23838592    -0.75409558     0.01340394
Ti      0.00499898     2.76449498     1.09154698    -0.30918324    -0.04094278     1.12524500
Ti      5.76513822     2.63514623     3.65308979    -0.45400222     0.97183596    -0.29296266
Ti      6.09822921    -1.10211180     3.78164382    -1.41720467    -0.01811214    -1.89767693
Ti      1.91534324     2.87928220     3.57500381     0.13574144    -0.02988394    -0.63094072
Ti      1.36846623    -0.74333676     3.81249084     1.09143344    -2.06918114    -0.24984164
O       3.80462202     4.80586602     0.74537002    -0.22893600     1.11188066    -0.19577518
O       3.97408702     1.05041801     0.84776000    -1.26770911    -1.29716059     0.20316556
O       0.06596602     4.63064601     0.69560402    -0.03987217     0.38773587     0.28307419
O       7.15929601     0.84476898     0.64870902     1.24147073     0.10609198     1.80516654
O       5.55097923     4.69635120     4.10350583     1.17678947    -0.49585723    -0.91895735
O       5.54329621     0.73613921     4.02532582     0.90099587     1.22054735    -0.60474863
O       1.91611023     4.92850221     3.96539083    -0.25863713    -0.79158614     0.98215072
O       2.01721225     0.92609723     4.07412681    -0.24154752     2.14767129    -0.36459362
O       3.90543823     2.82439224     3.19858479    -1.14884851     0.22094835    -0.02984769
O       0.01831123     2.78400823     3.23874681    -0.04927727    -0.19831595    -0.03068279
O       5.60652501     6.56519998     1.90459301     0.15554897    -0.12355724    -0.16512505
O       5.74528201     2.87438102     1.52007800     0.29250063     0.44093716     0.78311589
O       1.81306000     6.76547097     1.87645501     0.50167461     0.02154457    -0.05207669
O       1.87982698     2.87522998     1.64855203     0.50448508    -0.23825882    -0.17311321
