# total energy = -19947.11109600 eV

CRYSTAL
PRIMVEC
        5.71155782     0.00000000     0.00000000
        1.49635537     5.89177646     0.00000000
        0.00000000     0.00000000    10.30449496
PRIMCOORD
24 1
Ti      2.95690387     3.49146145     3.82289433     0.32337291    -2.05421037     0.93142849
Ti      4.25100948     2.40031540     6.48160121    -0.32337291     2.05421037    -0.93142849
Ti      5.53546689     2.40031744     1.32931230    -0.82540413    -0.52446179     0.17897533
Ti      1.67244649     3.49145964     8.97518336     0.82540413     0.52446179    -0.17897533
Ti      2.20872631     0.54557326     1.32935361     0.32337291    -2.05421037    -0.93142849
Ti      4.99918707     5.34620382     8.97514204    -0.32337291     2.05421037     0.93142849
Ti      0.92426882     0.54557100     6.48155990     0.82540413     0.52446179     0.17897533
Ti      6.28364456     5.34620602     3.82293564    -0.82540413    -0.52446179    -0.17897533
O       2.33463628     2.07459478     5.25830515     1.46950890     1.79264552    -0.67716815
O       4.87327701     3.81718208     5.04619039    -1.46950890    -1.79264552     0.67716815
O       1.57496643     2.07461856     0.10609058    -0.43288729    -0.11258711     0.88046792
O       5.63294699     3.81715840    10.19840467     0.43288729     0.11258711    -0.88046792
O       4.12509943     0.87129372     0.10605715    -1.46950890    -1.79264552    -0.67716815
O       3.08281392     5.02048313    10.19843810     1.46950890     1.79264552     0.67716815
O       4.88476940     0.87126998     5.25833858     0.43288729     0.11258711     0.88046792
O       2.32314390     5.02050693     5.04615696    -0.43288729    -0.11258711    -0.88046792
O       1.11768226     3.58371257     2.78350133     0.32691640     1.21419749     1.21775513
O       6.09023103     2.30806429     7.52099421    -0.32691640    -1.21419749    -1.21775513
O       3.64947770     2.30800935     2.36877924     0.89983913     1.12487245     0.31632680
O       3.55843566     3.58376756     7.93571613    -0.89983913    -1.12487245    -0.31632680
O       0.36950468     0.63782421     2.36874633     0.32691640     1.21419749    -1.21775513
O       6.83840868     5.25395270     7.93574904    -0.32691640    -1.21419749     1.21775513
O       2.81025807     0.63787914     7.52102707    -0.89983913    -1.12487245     0.31632680
O       4.39765528     5.25389771     2.78346841     0.89983913     1.12487245    -0.31632680
