# total energy = -19075.63637330 eV

CRYSTAL
PRIMVEC
        7.60600008     0.00000000     0.00000000
        0.00000000     7.60600008     0.00000000
       -1.89786986    -1.89786986     4.85670466
PRIMCOORD
22 1
Ti      3.74655202     6.78645502     1.13997602     0.20474139     0.37142530     0.12588049
Ti      3.90205398     3.03436702     1.15156002     0.39382476    -1.15432136     0.44307837
Ti      0.02336000     6.60705700     1.10640797    -1.07511901    -0.13154720     1.11805054
Ti     -0.00496199     2.75407903     1.11009200    -0.44756006    -0.02084111     0.32544804
Ti      5.75126822     2.65924522     3.68076883    -0.59905620     0.65761721    -0.56439026
Ti      6.12514925    -1.15520875     3.72568783    -1.12982337     1.06267050     0.28448059
Ti      1.90397022     2.91728623     3.58982480     0.56794044    -1.02766543    -0.76054725
Ti      1.47221625    -0.86167080     3.76366884    -0.02898509     0.81444505    -0.77280165
O       3.88044598     4.86768001     0.66954300    -0.62482741     0.36583983     1.26800067
O       3.94850500     1.08932698     0.64976801    -0.25569965    -0.58101297     2.95910198
O      -0.00699398     4.69173402     0.82612401    -0.05351959    -0.27707863    -0.23339403
O       7.25497300     0.81852502     0.67230498     0.78261350     0.57737794     0.94843583
O       5.69167222     4.65101320     4.11321883     0.68927907    -0.10618660    -1.73641522
O       5.55257222     0.83353222     3.99698483     0.86333768    -0.55415470     0.40763904
O       1.88989522     4.92062721     4.11638183    -0.18635234    -0.79798561    -1.20030581
O       2.17449822     1.01856323     4.02764981    -1.28137813     0.03354777     0.05238779
O       3.79557420     2.81386325     3.24965384     0.22243213     0.90858603    -1.08848258
O      -0.01841876     2.67735124     3.31863781     0.48490869     0.14598061    -0.33200976
O       5.50411302     6.59537298     2.02249502    -0.01977976     0.10431304    -1.34104625
O       5.77224200     2.90717900     1.59358099    -1.11213083     0.09714891     0.76254012
O       1.74637901     6.86178102     1.87827898     1.49732259    -0.48896127    -0.81468159
O       1.81879401     2.88857599     1.58056000     1.10783117     0.00080321     0.14903096
