# total energy = -19958.57121411 eV

CRYSTAL
PRIMVEC
        5.41541922     0.00000000     0.00000000
        0.57495663     5.73489435     0.00000000
        0.00000000     0.00000000     9.70457589
PRIMCOORD
24 1
Ti      2.30354783     3.39849311     3.60032853     0.29943567    -0.92771556     0.60021834
Ti      3.68682819     2.33640128     6.10424770    -0.29943567     0.92771556    -0.60021834
Ti      4.90468748     2.33640323     1.25192082    -0.40385335    -0.12378555     0.01699783
Ti      1.08568856     3.39849144     8.45265557     0.40385335     0.12378555    -0.01699783
Ti      2.01606963     0.53104599     1.25195975     0.29943567    -0.92771556    -0.60021834
Ti      3.97430641     5.20384863     8.45261664    -0.29943567     0.92771556     0.60021834
Ti      0.79821028     0.53104388     6.10420882     0.40385335     0.12378555     0.01699783
Ti      5.19216569     5.20385069     3.60036746    -0.40385335    -0.12378555    -0.01699783
O       1.91646644     2.01935381     4.95217092     0.79952133     0.91570027    -0.27576480
O       4.07390958     3.71554065     4.75240530    -0.79952133    -0.91570027     0.27576480
O       1.19618125     2.01937700     0.09991405    -0.42350867     0.19633260     0.34253252
O       4.79419483     3.71551751     9.60466195     0.42350867    -0.19633260    -0.34253252
O       3.78643137     0.84809330     0.09988259    -0.79952133    -0.91570027    -0.27576480
O       2.20394466     4.88680115     9.60469342     0.79952133     0.91570027     0.27576480
O       4.50671662     0.84807016     4.95220244     0.42350867    -0.19633260     0.34253252
O       1.48365935     4.88682430     4.75237384    -0.42350867     0.19633260    -0.34253252
O       0.54647590     3.48828797     2.62144812     0.08276204     0.20513348     0.30367851
O       5.44390007     2.24660649     7.08312810    -0.08276204    -0.20513348    -0.30367851
O       3.12970522     2.24655308     2.23087085     0.46991196     0.37014412    -0.08619858
O       2.86067080     3.48834132     7.47370527    -0.46991196    -0.37014412     0.08619858
O       0.25899769     0.62084062     2.23083983     0.08276204     0.20513348    -0.30367851
O       5.73137828     5.11405378     7.47373623    -0.08276204    -0.20513348     0.30367851
O       2.57319259     0.62089403     7.08315907    -0.46991196    -0.37014412    -0.08619858
O       3.41718344     5.11400042     2.62141715     0.46991196     0.37014412     0.08619858
