# total energy = -19916.33459829 eV

CRYSTAL
PRIMVEC
        6.73882996     0.00000000     0.00000000
        0.00003354     6.48909055     0.00000000
        0.00000000     0.00000000    11.51547762
PRIMCOORD
24 1
Ti      2.44252165     3.84542899     4.27216017     0.22181558    -0.92171666     0.78135751
Ti      4.29634184     2.64366143     7.24331784    -0.22181558     0.92171666    -0.78135751
Ti      5.81181919     2.64366366     1.48553284     0.22183049     0.92186270    -0.78177532
Ti      0.92704437     3.84542709    10.02994536    -0.22183049    -0.92186270     0.78177532
Ti      2.44250495     0.60088385     1.48557904     0.22181558    -0.92171666    -0.78135751
Ti      4.29635861     5.88820677    10.02989917    -0.22181558     0.92171666     0.78135751
Ti      0.92702760     0.60088148     7.24327171    -0.22183049    -0.92186270    -0.78177532
Ti      5.81183589     5.88820920     4.27220636     0.22183049     0.92186270     0.78177532
O       2.13289406     2.28491902     5.87626023     1.16868458     1.37438345    -0.44916160
O       4.60596950     4.20417141     5.63921778    -1.16868458    -1.37438345     0.44916160
O       1.23658403     2.28494526     0.11855830    -1.16846372     1.37457268    -0.44987483
O       5.50227960     4.20414523    11.39691944     1.16846372    -1.37457268     0.44987483
O       4.60595273     0.95962606     0.11852097    -1.16868458    -1.37438345    -0.44916160
O       2.13291083     5.52946436    11.39695678     1.16868458     1.37438345     0.44916160
O       5.50226283     0.95959989     5.87629763     1.16846372    -1.37457268    -0.44987483
O       1.23660060     5.52949060     5.63918044    -1.16846372     1.37457268     0.44987483
O       0.24485779     3.94703274     3.11061787    -0.17399253    -0.12060664     0.12112189
O       6.49400577     2.54205775     8.40486014     0.17399253     0.12060664    -0.12112189
O       3.61427874     2.54199735     2.64715775    -0.17407583     0.12077453    -0.12117177
O       3.12458476     3.94709314     8.86832013     0.17407583    -0.12077453     0.12117177
O       0.24484102     0.70248740     2.64712094    -0.17399253    -0.12060664    -0.12112189
O       6.49402247     5.78660309     8.86835687     0.17399253     0.12060664     0.12112189
O       3.12456805     0.70254780     8.40489689     0.17407583    -0.12077453    -0.12117177
O       3.61429551     5.78654263     3.11058112    -0.17407583     0.12077453     0.12117177
