# total energy = -4987.39780590 eV

CRYSTAL
PRIMVEC
        4.55997482     0.00000000     0.00000000
       -0.00000849     3.73088828     0.00000000
       -2.28001784    -1.86548677     5.34393170
PRIMCOORD
6 1
Ti     -0.00019791     2.79830526     1.33598307    -0.00155192    -0.00034813     2.81952831
Ti      2.28014641    -0.93290399     4.00794881     0.00155192     0.00034813    -2.81952831
O       0.00004704     0.93271422     0.87048287    -0.00012573     0.00018178    -0.63248467
O       2.27990134     0.93268694     4.47344906     0.00012573    -0.00018178     0.63248467
O      -0.00002206    -0.93270573     3.54244861    -0.00252071    -0.00030416    -1.77524480
O       2.27997032     2.79810689     1.80148327     0.00252071     0.00030416     1.77524480
