# total energy = -19926.86070754 eV

CRYSTAL
PRIMVEC
        7.40779608     0.00000000     0.00000000
        0.00002795     4.73048091     0.00000000
        0.00000000     0.00000000    11.31377138
PRIMCOORD
24 1
Ti      2.68498613     2.80327859     4.19732851     0.49494988    -0.13799270     1.62914901
Ti      4.72283741     1.92720226     7.11644300    -0.49494988     0.13799270    -1.62914901
Ti      6.38875672     1.92720385     1.45951204     0.49432793     0.13806418    -1.62942258
Ti      1.01906688     2.80327718     9.85425952    -0.49432793    -0.13806418     1.62942258
Ti      2.68497240     0.43803819     1.45955742     0.49420735    -0.13823876    -1.62874175
Ti      4.72285114     4.29244278     9.85421420    -0.49420735     0.13823876     1.62874175
Ti      1.01905309     0.43803648     7.11639761    -0.49417675    -0.13817088    -1.62952671
Ti      6.38877045     4.29244449     4.19737383     0.49417675     0.13817088     1.62952671
O       2.34462394     1.66568270     5.77333096     1.02785338     1.08031779    -1.34958489
O       5.06319967     3.06479809     5.54044054    -1.02785338    -1.08031779     1.34958489
O       1.35933684     1.66570180     0.11648162    -1.02700826     1.08126215    -1.35137258
O       6.04848682     3.06477905    11.19728952     1.02700826    -1.08126215     1.35137258
O       5.06318593     0.69955758     0.11644490    -1.02807244    -1.08159794    -1.35081696
O       2.34463767     4.03092321    11.19732624     1.02807244     1.08159794     1.35081696
O       6.04847303     0.69953854     5.77336762     1.02734893    -1.08068622    -1.35016390
O       1.35935045     4.03094232     5.54040383    -1.02734893     1.08068622     1.35016390
O       0.26915927     2.87734665     3.05613191    -1.95581165     0.68661644     0.57356551
O       7.13866434     1.85313414     8.25763954     1.95581165    -0.68661644    -0.57356551
O       3.97306583     1.85309016     2.60078978    -1.95677890    -0.68623823    -0.57547352
O       3.43475771     2.87739069     8.71298148     1.95677890     0.68623823     0.57547352
O       0.26914547     0.51210614     2.60075367    -1.95618934     0.68624826    -0.57497704
O       7.13867807     4.21837465     8.71301760     1.95618934    -0.68624826     0.57497704
O       3.43474398     0.51215017     8.25767559     1.95643925     0.68622306    -0.57373057
O       3.97307956     4.21833062     3.05609579    -1.95643925    -0.68622306     0.57373057
