# total energy = -19074.72873895 eV

CRYSTAL
PRIMVEC
        5.17600016     0.00000000     0.00000000
        0.00000000     5.50899976     0.00000000
        0.00000000     0.00000000     9.26300011
PRIMCOORD
22 1
Ti      1.81746001     3.36982401     3.34775102     1.97627275     1.44876009    -1.08811672
Ti      3.72076701     2.34746600     5.91429402    -1.14800776     0.21676490    -0.50871403
Ti      4.31044599     2.38087899     1.24309001    -0.04860158    -0.31923831    -1.50037321
Ti      0.77024199     3.18050201     8.10704400     0.14347121     0.85068708    -0.07912342
Ti      1.75068398     0.63169402     1.23472399     1.44459979    -1.35914297    -1.14643244
Ti      3.20408998     4.94340501     7.93579102    -0.27532257     0.62806546     1.25647313
Ti      0.71803902     0.09149999     6.04616399    -0.03872880     1.56047868    -0.61012532
Ti      4.49588499     5.05246003     3.39528299    -1.26046837    -0.13567742     0.70358084
O       3.50116401     3.56055198     4.37904102     0.05607167    -1.35600597     1.56352209
O       0.80947598     2.01347001     0.28192902    -0.20513374    -0.24331490    -0.77051825
O       4.22533000     3.73023499     8.97599199     0.81782657    -1.06046269     0.88507097
O       3.35007999     0.81957798     0.23311898     0.43076021     0.41221407    -1.49284656
O       1.61633598     4.64039902     8.96089599    -0.62683518     0.76121600     0.55221454
O       4.28137299     0.71424699     4.98545100     0.41695518    -0.58577979    -1.11653847
O       1.09087398     4.82670899     4.34518801    -0.71252597    -0.11222072     1.32775185
O       0.13517499     3.49132602     2.50407998    -0.49326170    -0.44965757    -0.59781565
O       0.16102297     1.92224298     6.74336200    -0.03079797    -0.18855089     0.34403456
O       2.70443299     2.01950501     2.14834502    -1.14246909     0.65935888     1.84703774
O       2.49958800     3.36659899     7.03953700    -0.78970254    -0.24926314    -0.59418705
O       5.10085900     0.79117799     2.18580002     0.75718322    -0.29668716     0.44545716
O       2.39776398     0.68933401     6.67828902     0.42022897    -0.06704360    -0.24959970
O       2.65382899     4.74081998     2.27601501     0.30848596    -0.11450001     0.82924741
