# total energy = -4959.82004481 eV

CRYSTAL
PRIMVEC
        5.39096270     0.00000000     0.00000000
       -0.00000745     2.59564854     0.00000000
       -2.69551155    -1.29789679     5.80780202
PRIMCOORD
6 1
Ti     -0.00023031     1.94682247     1.45195020    -0.01587760    -0.01784063    30.55746622
Ti      2.69567395    -0.64907089     4.35585110     0.01587760     0.01784063   -30.55746622
O       0.00005737     0.64889969     0.94604335     0.01470980     0.01743928   -23.94696522
O       2.69538611     0.64885179     4.86175800    -0.01470980    -0.01743928    23.94696522
O      -0.00002202    -0.64892920     3.84994425    -0.00177715    -0.00073379    -1.74958853
O       2.69546544     1.94668068     1.95785710     0.00177715     0.00073379     1.74958853
