# total energy = -19961.07556869 eV

CRYSTAL
PRIMVEC
        7.60600008     0.00000000     0.00000000
        0.00000000     7.60600008     0.00000000
       -1.89786986    -1.89786986     4.85670466
PRIMCOORD
24 1
Ti      3.79782897     6.72296698     1.28239502     1.11637058    -0.29426621    -0.53066406
Ti      3.78427701     2.89679998     1.20160299     1.67185454     0.46262185     0.14286957
Ti      0.05860199     6.52169801     1.27072503    -1.33861193     0.31402232    -1.59306639
Ti      0.09074802     2.78238202     1.19739699    -1.80802998    -0.02442472    -0.81869251
Ti      5.71072821     2.87537920     3.62609683    -0.75757428    -0.86206498    -1.47012519
Ti      5.64968524    -1.06681075     3.63669281    -1.43521526     0.81052900    -0.21302138
Ti      1.91779921     2.99571824     3.62623780     0.45584390    -0.31704542     1.23491648
Ti      1.79809921    -0.90094877     3.63652379     2.33835903    -0.05096443     1.18175993
O       3.87753402     4.87472600     0.75896199    -0.99540861    -1.22506735    -0.05177227
O       3.92342099     1.00926902     0.80744400    -0.94714333    -0.54872787    -0.58818840
O       0.08381400     4.72224099     0.65961002     0.26990808     0.15427087     1.52186481
O      -0.00426199     0.91025202     0.76616902     0.44864918    -1.09027387     0.39649536
O       5.35092224     4.70109025     4.03505279     1.07492721     0.92709618     0.56242903
O       5.64949124     0.91703221     4.05938584     0.60017232    -0.18812409    -0.14952333
O       2.11602721     4.83578623     4.02295384    -1.06142068     0.77307470     0.05547003
O       1.95201925     1.04766221     4.12390583    -1.03939892    -1.04786094    -0.68474905
O       3.74053125     2.85639222     3.26544581     0.69783365    -0.06972217    -0.87332822
O       3.78350420    -0.83298775     3.19569882    -0.34303183     0.29961436     0.18119882
O      -0.05290878     3.09757221     3.14959182     0.71903421    -0.19609554     0.41411488
O      -0.01627178    -1.05603977     3.17537783    -0.44761277     0.19060623     0.55407962
O       5.61173598     6.43570898     1.60522802     2.03055827     0.58583276     0.94535899
O       5.69707798     2.82925802     1.58730399    -0.19499536     0.10269170     0.39722402
O       1.91266402     6.40950100     1.63992099    -1.00345900     0.99826948    -0.03270727
O       1.90359001     2.71332799     1.66447799    -0.05160874     0.29600762    -0.58194293
