# total energy = -4986.41910191 eV

CRYSTAL
PRIMVEC
        3.85685661     0.00000000     0.00000000
        0.00000000     3.62586939     0.00000000
        0.00000000    -0.00007141     5.15679196
PRIMCOORD
6 1
Ti      1.92842814     1.81289910     2.57839609     0.00000000     0.00000000     0.00000000
Ti      0.00000000     0.00000000     0.00000000     0.00000000     0.00000000     0.00000000
O       1.92842814     0.70661467     1.00498286     0.00000000    -0.01700708     0.81175233
O       1.92842814     2.91918353     4.15180937     0.00000000     0.01700708    -0.81175233
O       0.00000000     1.10625592     3.58337995     0.00000000     0.01693303     0.81207166
O       0.00000000     2.51954228     1.57341223     0.00000000    -0.01693303    -0.81207166
