# total energy = -4947.42526246 eV

CRYSTAL
PRIMVEC
        5.08290769     0.00000000     0.00000000
       -0.00000702     2.44732577     0.00000000
       -2.54148232    -1.22373126     5.47592762
PRIMCOORD
6 1
Ti     -0.00021715     1.83557548     1.36898162    -0.02348061    -0.02279130    42.58573070
Ti      2.54163544    -0.61198112     4.10694532     0.02348061     0.02279130   -42.58573070
O       0.00005409     0.61181971     0.89198373     0.02213644     0.02163070   -34.35764912
O       2.54136405     0.61177454     4.58394326    -0.02213644    -0.02163070    34.35764912
O      -0.00002076    -0.61184753     3.62994744    -0.00144136     0.00063763    -1.21017603
O       2.54143884     1.83544178     1.84597955     0.00144136    -0.00063763     1.21017603
