# total energy = -19517.79697606 eV

CRYSTAL
PRIMVEC
        5.93400000     0.00000000     0.00000000
        0.00000000     9.29699974     0.00000000
        0.00000000     0.00000000     4.64899994
PRIMCOORD
23 1
Ti      4.47656902     6.90995600     2.30927999     0.30651726     1.18811492     0.04478323
Ti      4.43643997     2.31857901     2.33761902     0.42979039    -0.13408745     0.40611207
Ti      1.47390798     7.01098498     2.34682898    -0.04130093     0.92162024    -0.13617519
Ti      1.45329499     2.37818702     2.31575400     0.03951453    -0.79485504    -0.07012198
Ti      2.96885699     4.65392701     0.04320499    -0.15077469    -0.96412599     0.74519056
Ti      3.00751699     0.01982901     4.63361300    -0.70986719    -0.91160682    -0.45437478
Ti      0.02301101     4.65239102     0.00495998    -0.20670803    -0.21992710    -0.08722136
Ti      5.93271601     9.27635702     0.07316299     0.58339638     0.06963218    -1.01388714
O       4.36058099     5.60262900     0.84972002     0.50907810     0.00717518    -0.09687406
O       4.40134002     0.88754497     0.79617501     0.28365732     0.14139504     0.91774276
O       1.50962199     5.59381402     0.93317302     0.12519220    -0.55278867    -0.56387604
O       1.46694898     0.94026002     0.97695100     0.22039993    -0.26113985    -0.61981761
O       4.47293997     8.32021501     3.59179000    -0.68933667     0.25807946     1.21607902
O       4.47948701     3.68775100     3.64722000    -0.33972333     1.56950043     0.91454610
O       1.46038898     8.34603399     3.70770601     0.45976895     0.27841561     0.34914488
O       1.43263099     3.72101599     3.84154198     0.38618189    -0.13210076    -1.27916209
O       3.00414999     1.52404101     3.24642602    -1.25197832    -0.83157889     0.13119856
O       0.04305899     6.03632198     3.26802401    -0.40579608     0.11320546    -0.67010429
O       5.84365997     1.28517802     3.26392400     0.84149435     1.46439677    -1.16548921
O       2.95617700     7.85668701     1.36072702     0.29908986    -0.23615643     0.50076212
O       3.02245100     3.26274002     1.32706801    -0.95975666    -0.36208242     0.57735737
O       0.07799999     7.88380999     1.39468601    -0.70498312    -0.37314177    -0.08253167
O       5.85202002     3.26686702     1.37938200     0.97614359    -0.23794463     0.43671849
