# total energy = -19945.79677672 eV

CRYSTAL
PRIMVEC
        6.58355730     0.00000000     0.00000000
        0.00002591     4.67126383     0.00000000
        0.00000000     0.00000000    10.22840275
PRIMCOORD
24 1
Ti      2.38623833     2.76818660     3.79466447     0.36874698     0.37909645    -0.10523838
Ti      4.19734499     1.90307723     6.43373840    -0.36874698    -0.37909645     0.10523838
Ti      5.67790349     1.90307886     1.31949607     0.36817465    -0.37913578     0.10532605
Ti      0.90567983     2.76818520     8.90890684    -0.36817465     0.37913578    -0.10532605
Ti      2.38622537     0.43255480     1.31953708     0.36874698     0.37909645     0.10523838
Ti      4.19735795     4.23870920     8.90886584    -0.36874698    -0.37909645    -0.10523838
Ti      0.90566688     0.43255306     6.43369734    -0.36817465     0.37913578     0.10532605
Ti      5.67791644     4.23871094     3.79470547     0.36817465    -0.37913578    -0.10532605
O       2.08374663     1.64483143     5.21947565     1.10749358     0.28741730    -0.06601233
O       4.49983669     3.02643246     5.00892721    -1.10749358    -0.28741730     0.06601233
O       1.20808889     1.64485025     0.10530714    -1.10727401     0.28739622    -0.06631675
O       5.37549454     3.02641363    10.12309538     1.10727401    -0.28739622     0.06631675
O       4.49982379     0.69080049     0.10527394    -1.10749358    -0.28741730    -0.06601233
O       2.08375953     3.98046334    10.12312859     1.10749358     0.28741730     0.06601233
O       5.37548158     0.69078172     5.21950880     1.10727401    -0.28739622    -0.06631675
O       1.20810168     3.98048222     5.00889401    -1.10727401     0.28739622     0.06631675
O       0.23921175     2.84132746     2.76294678    -0.96425609     0.25575955     0.71147233
O       6.34437157     1.82993643     7.46545608     0.96425609    -0.25575955    -0.71147233
O       3.53099777     1.82989287     2.35128719    -0.96379740    -0.25536900    -0.71153275
O       3.05258555     2.84137102     7.87711551     0.96379740     0.25536900     0.71153275
O       0.23919880     0.50569549     2.35125449    -0.96425609     0.25575955    -0.71147233
O       6.34438452     4.16556834     7.87714815     0.96425609    -0.25575955     0.71147233
O       3.05257266     0.50573905     7.46548867     0.96379740     0.25536900    -0.71153275
O       3.53101066     4.16552484     2.76291413    -0.96379740    -0.25536900     0.71153275
