# total energy = -18974.65604416 eV

CRYSTAL
PRIMVEC
        7.60600008     0.00000000     0.00000000
        0.00000000     7.60600008     0.00000000
       -1.89786986    -1.89786986     4.85670466
PRIMCOORD
22 1
Ti      6.01828302     4.91144403     0.12841698   -14.87159659    14.57632251     2.56272154
Ti      5.10516523     2.99205025     2.51969483    -7.55507503     2.50171181     1.83458769
Ti     -0.47191778     4.09194125     4.70216982    -2.52541174    13.99668020     6.03909702
Ti      0.37046302     3.63495600     1.57595002    -5.47471344     4.07255384     6.77896591
Ti     -1.65172778     2.32549620     4.75500680    23.30596043    65.43176483    68.33191036
Ti      5.25427521     1.58572022     3.95394880   -67.90234340   -64.94523299   -62.92764697
Ti     -0.41235179     2.16368121     3.95904282    45.93554872    -3.64952905   -23.98234156
Ti     -0.81397976     0.11869123     4.10791483     5.24650275   -17.49924314     3.94051196
O       4.20627798     4.76616402     1.37034502     2.01541935     1.80043057    -0.71485359
O       5.48023601     6.36237301     1.32972601    -1.82863507    -3.02649473    -1.31110986
O       0.84096700     5.60363401     1.79836898    -0.28697739    -0.34147708    -2.66789719
O      -0.94731777     5.82501521     4.50140982     1.42015939     1.09251922    -0.03038248
O       6.28954901     4.29898301     2.15225003     4.02615570    16.24953279    13.06235047
O       5.99836224     0.35050621     2.64240982     1.06799963     2.85085593    -5.29823800
O       1.07389924     3.68121821     4.53356982     3.75448821     0.39782591     1.97377801
O       1.77935099     3.53310398     0.85551202    10.95222244    -2.72171811    -1.98778461
O       3.60335200     2.52485500     2.37986699    -5.26776759    -2.79024652     0.40809876
O       0.73317820     2.94031920     2.78360780     5.05834524    -7.99416305     9.25852946
O       4.49921823     4.47411824     3.81697281     1.01439493    -3.10719783     1.31726328
O       6.11468398     3.50914601     1.32668398     1.34330857   -14.47047735   -17.42998762
O       0.82501025     0.81273222     3.93332481     1.48102153    -2.08980294    -1.30481400
O       4.76418823    -0.16953876     4.28499384    -0.90900692    -0.33461455     2.14724115
