# total energy = -19519.08438068 eV

CRYSTAL
PRIMVEC
        7.60600008     0.00000000     0.00000000
        0.00000000     7.60600008     0.00000000
       -1.89786986    -1.89786986     4.85670466
PRIMCOORD
23 1
Ti      3.81576703     6.58150002     1.20274898    -0.44828332     0.50109559     0.61578895
Ti      3.78023902     2.84660302     1.22087399     0.15498358     0.06795351     0.95177826
Ti     -0.00342499     6.68375003     1.24028098     0.32969165     0.22872671    -0.43692572
Ti     -0.02887302     2.90513098     1.18571799     0.13848430    -0.63572323    -0.97214604
Ti      5.69668020     2.87177921     3.66982581    -0.64445547    -0.13490712    -0.62643512
Ti      5.74322822    -0.94049477     3.62491782    -1.45839967    -0.07838731     0.69147223
Ti      1.93212123     2.85766923     3.64315480     0.90676569    -0.24050134    -0.72326881
Ti      1.89570124    -0.98403976     3.70849682     0.76263499     0.08946080    -1.51396998
O       3.70902599     4.77727098     0.71987098     0.02487749    -1.02542008     0.98493702
O       3.75583098     0.92321200     0.68181102     0.19434745     0.23334467     1.68246985
O       0.01659902     4.77444702     0.79012000     0.20389987     0.27189375    -0.17166157
O      -0.02816599     0.98002002     0.85549101     0.16116786    -1.36794155    -0.65507902
O       5.72136923     4.68625921     3.91882779     0.50350138     0.86992228     1.20178291
O       5.72787525     0.90896025     3.98723781     0.32896737     0.83974497     0.17868068
O       1.87869624     4.70103521     4.02697283    -0.30026228     0.47189814    -0.27387247
O       1.84807820     0.95002821     4.15141283    -0.19265360     0.22986108    -1.32186325
O       3.84503524     2.95878722     3.25526984    -1.04568527    -0.70717242    -0.84019054
O       3.83969922    -0.99260978     3.26763279    -1.01912782    -0.01576730    -0.46869351
O      -0.08426375    -1.09353277     3.24767683     2.34150169     0.45277992    -0.93337379
O       5.68783802     6.63492702     1.56268598     0.48654829     0.11785916     0.27074858
O       5.77843200     2.85465900     1.58286001    -1.22781894     0.04867640     0.75291853
O       1.97012701     6.69886603     1.58140499    -1.45255555    -0.01701120     0.70983994
O       1.79529801     2.87558601     1.61800400     1.25187059    -0.20038517     0.89706260
