# total energy = -19518.88029112 eV

CRYSTAL
PRIMVEC
        5.17600016     0.00000000     0.00000000
        0.00000000     5.50899976     0.00000000
        0.00000000     0.00000000     9.26300011
PRIMCOORD
23 1
Ti      1.88742301     3.23133700     3.41608998    -0.28294229     0.30728319     0.16067061
Ti      3.29154399     2.23549098     5.84323198     0.02184256     0.13170532    -0.19221754
Ti      4.46396598     2.25189400     1.23346200     1.00441828    -1.24110461     0.16742027
Ti      0.70803302     3.30662300     8.04185301     0.25137736    -0.67980584     0.71011325
Ti      1.87707500     0.52569600     1.23597200    -0.44430042     0.05855484    -0.92332694
Ti      3.31974400     5.01245698     8.03746698    -1.11179478     0.48583249     0.85462292
Ti      0.72950502     0.52423500     5.83448102     0.03529637    -0.16100408    -0.80503815
Ti      4.46110403     4.97126201     3.46747103     0.18635311     0.01776170    -0.49517614
O       1.58506102     1.95111002     4.70561000     0.37954150    -0.36558864     0.47159372
O       3.50230200     3.55687600     4.46085902     0.06104418    -0.17460008     0.91404397
O       0.94907601     1.96451402     0.11111801    -0.87972796     0.75185538    -0.20334065
O       3.52675200     0.84303799     0.14111199     0.16746115    -0.63351080    -1.01448929
O       1.65837699     4.65062701     9.06892700     0.62185598     1.10458181     1.36069309
O       4.24769600     0.79359500     4.68434099    -0.23177012     0.72247794     0.91362693
O       0.93128502     4.66503301     4.51779399     0.06555596     0.61333483     0.57418334
O       0.14480703     3.33593799     2.56220401    -0.02929310     0.12443681    -0.93082428
O       5.02325902     2.21878401     6.76259500    -0.98517099    -0.93477504    -0.79655891
O       2.80698500     2.11558000     2.15733500    -0.68788271     0.29414511    -0.00439993
O       2.32586599     3.27668501     7.17503998     2.36739399     0.24621459    -1.22484340
O       0.15501999     0.62238198     2.07778902     0.04958451    -0.33983209     0.38779963
O       5.02570202     4.89463498     7.11308201    -0.56584654     0.08077021     0.53798528
O       2.47238501     0.61440998     6.74896101    -0.32859508    -0.07491143    -0.51865315
O       2.71985401     4.92269799     2.48469500     0.33559928    -0.33382110     0.05611460
