# total energy = -19933.64212583 eV

CRYSTAL
PRIMVEC
        6.05982878     0.00000000     0.00000000
        1.27715839     6.32177121     0.00000000
        0.00000000     0.00000000    10.90093888
PRIMCOORD
24 1
Ti      2.95323925     3.74627577     4.04417071    -0.04703218    -1.79676392     0.81187626
Ti      4.38374762     2.57549560     6.85676860     0.04703218     1.79676392    -0.81187626
Ti      5.74652661     2.57549786     1.40625539    -0.09708978    -0.24867513    -0.21661989
Ti      1.59046029     3.74627374     9.49468405     0.09708978     0.24867513     0.21661989
Ti      2.31466020     0.58539040     1.40629910    -0.04703218    -1.79676392    -0.81187626
Ti      5.02232669     5.73638115     9.49464034     0.04703218     1.79676392     0.81187626
Ti      0.95188114     0.58538795     6.85672489     0.09708978     0.24867513    -0.21661989
Ti      6.38510575     5.73638359     4.04421442    -0.09708978    -0.24867513     0.21661989
O       2.36768314     2.22600314     5.56266584     1.69864159     1.88091693    -0.52988476
O       4.96930373     4.09576822     5.33827348    -1.69864159    -1.88091693     0.52988476
O       1.56169003     2.22602860     0.11223129    -0.82874502     0.31573518     0.76520352
O       5.77529691     4.09574282    10.78870771     0.82874502    -0.31573518    -0.76520352
O       4.33072467     0.93488267     0.11219590    -1.69864159    -1.88091693    -0.52988476
O       3.00626221     5.38688869    10.78874310     1.69864159     1.88091693     0.52988476
O       5.13671784     0.93485726     5.56270122     0.82874502    -0.31573518     0.76520352
O       2.20026898     5.38691416     5.33823809    -0.82874502     0.31573518    -0.76520352
O       0.99700766     3.84525954     2.94461565     0.42997088     1.15363590     1.32709313
O       6.33997921     2.47651182     7.95632366    -0.42997088    -1.15363590    -1.32709313
O       3.75040021     2.47645278     2.50588868     0.69847849     1.33217595     0.50065722
O       3.58658666     3.84531858     8.39505045    -0.69847849    -1.33217595    -0.50065722
O       0.35842859     0.68437398     2.50585385     0.42997088     1.15363590    -1.32709313
O       6.97855829     5.63739744     8.39508528    -0.42997088    -1.15363590     1.32709313
O       2.94800759     0.68443297     7.95635843    -0.69847849    -1.33217595     0.50065722
O       4.38897929     5.63733839     2.94458082     0.69847849     1.33217595    -0.50065722
