# total energy = -19958.70506261 eV

CRYSTAL
PRIMVEC
        7.60600008     0.00000000     0.00000000
        0.00000000     7.60600008     0.00000000
       -1.89786986    -1.89786986     4.85670466
PRIMCOORD
24 1
Ti      3.58595799     6.75353702     1.33916400     0.92061802     0.19039900     1.37288064
Ti      3.86965701     2.96651602     1.33483300    -1.27706921    -0.57051129    -1.19266552
Ti      0.00763502     6.62724199     1.14907898    -0.13807832    -0.03876788    -0.44470948
Ti      0.00101898     2.76792802     1.11496599     1.02532907    -0.60286015    -1.08324936
Ti      5.74221521     2.76784721     3.59444880    -0.76936511     0.17285944     1.35186315
Ti      5.83198421    -1.08852575     3.55004681    -1.13086646    -0.18810789    -0.85000753
Ti      1.71908622     3.03159122     3.52960882     1.46530592    -0.98354066     2.92310575
Ti      1.81739021    -0.84341276     3.73958884     1.08700806     0.08509223     0.61223260
O       3.54790502     4.72483501     0.77914799     0.48531390    -0.34853605     0.55079298
O       3.56303700     1.01408999     0.98069102     0.91970348     1.46831488    -0.61409948
O       0.34167700     4.69926400     0.67557599    -1.47860855    -0.97726665     0.09651154
O       0.18169999     0.83377199     0.61852100    -0.59875950     0.87854576     1.35939802
O      -1.35090776     4.72060424     3.94635680    -2.44646573    -1.90681797     0.38251704
O       5.73979423     0.74375921     3.99168279    -0.11569300     3.01694642     0.51528243
O       1.81050625     4.89179520     4.43996080     0.58438420    -1.49415216    -5.84362934
O       1.95361324     0.97739721     4.07878182    -0.28786699     0.01898375     0.28779114
O       3.69571221     2.92714322     3.32929983     1.97163499     0.61409639    -0.41968364
O       3.85905420    -1.00729376     3.15719181    -0.38654622    -0.75213434     2.05337553
O      -0.10485277     2.69210221     3.09860681     2.17349418    -0.07852872     0.35183092
O       0.08074123    -1.12831179     3.16429681     0.02110619     0.84869756    -0.24447652
O       5.80257402     6.79656897     1.58428202     0.25130486    -0.68757572    -0.30758067
O       5.77770099     2.66418599     1.61795198    -1.47287602     0.67411907    -0.69354865
O       1.81205801     6.76004098     1.69254100     0.42994260    -0.21524461     0.70251100
O       1.90915700     2.69549201     1.73841802    -1.23294984     0.87598983    -0.86644255
