# total energy = -19518.19937641 eV

CRYSTAL
PRIMVEC
        5.93400000     0.00000000     0.00000000
        0.00000000     9.29699974     0.00000000
        0.00000000     0.00000000     4.64899994
PRIMCOORD
23 1
Ti      4.57982399     7.16192099     2.27401202     0.27746919    -1.02229028     0.14705841
Ti      4.43026500     2.26057102     2.35936699    -0.49315602    -0.38750113    -0.23475569
Ti      1.47020702     7.03659700     2.20447400    -0.84336046    -0.00891273     0.57953947
Ti      1.42382198     2.29570701     2.27706601    -0.04389235    -0.45723796     0.57050975
Ti      3.01995302     4.41925500     0.08243502    -0.65743826     0.25204791     0.45879245
Ti      2.98476300     9.23066198     4.64463503    -0.54428320     0.64254591    -0.53454720
Ti      0.03304998     4.72215801     0.07803401     0.16234131     0.54595262    -0.53498789
Ti      0.00571998     0.05238902     4.63174998     0.49004910     0.19517997    -0.04914408
O       4.40113798     5.71580202     0.89652998    -0.47032565    -1.09589173    -0.36447175
O       4.41102698     0.83551902     0.94153201     0.36619670     0.37633637    -0.23456980
O       1.55923998     5.60153302     0.88488401     0.16134373    -0.00169693     0.36834949
O       1.53878601     0.86899001     0.99485799    -1.00531431     0.28533599    -0.58434794
O       4.45207801     8.23363298     3.84252900    -0.13318474     0.32958727    -0.31286120
O       4.32639698     3.76344399     3.55790800     0.13470323     1.05054620     1.41158630
O       1.43099398     8.35434001     3.75971001     0.39234380    -0.04651642     0.01077061
O       1.40086998     3.79091199     3.74415500     0.81855008    -0.35588709    -0.33491691
O       2.93516200     1.32434798     3.27691398    -0.13874038     0.71781730    -0.27970579
O       0.07496701     6.14318298     3.30309899    -0.48243452    -0.06735110    -1.07118522
O       5.82788001     1.32269298     3.18706000     0.70981423     0.29398390     0.43498531
O       2.92579800     7.96807798     1.47212200     0.63711060    -1.09407653     0.93080577
O       2.90765902     3.11823299     1.36149602     0.10304034     0.58693010    -0.29975680
O       0.05209999     7.97578100     1.43330701    -0.02944891    -0.13163282     0.03117284
O       5.81237703     3.32094200     1.41205102     0.58861572    -0.60726882    -0.10832036
