# total energy = -19075.53451601 eV

CRYSTAL
PRIMVEC
        7.60600008     0.00000000     0.00000000
        0.00000000     7.60600008     0.00000000
       -1.89786986    -1.89786986     4.85670466
PRIMCOORD
22 1
Ti      3.72866699     6.59839998     1.22762502    -0.29581581     0.80245419    -0.80066496
Ti      3.80203599     2.84772101     1.21499800     1.02879517    -0.70188648     1.43144705
Ti      0.11014999     6.75284099     1.05876001     0.58316061    -0.30847362     0.04092298
Ti      0.12111603     2.89370303     0.98637401    -1.16974799    -0.51901979     1.47803365
Ti      5.77102225     2.81824124     3.55502679    -0.99338850     0.46325588    -1.10962709
Ti      6.08108223    -0.91750678     3.60062880    -1.19883257    -0.27705601     0.64934186
Ti      1.87734424     2.78122323     3.73429479     1.05307231    -0.01847544    -1.09868627
Ti      1.18509822    -0.93437076     3.96357883     2.73444276    -0.43063269    -2.00934178
O       3.82426402     4.68267800     0.81661501    -0.27552080     1.51489197     0.32390358
O       3.81781198     0.92054097     0.81591798     0.04855659    -1.06757668     2.13028009
O       0.16125899     4.76139598     0.63780099     0.31880714    -0.04033034     0.10001698
O      -0.06786698     0.99089102     0.73871498     0.60793860     0.40403153     0.29359078
O       5.61494422     4.87021821     4.02895883     0.59705717    -0.67300913    -1.31744635
O       5.44561925     0.90177323     3.84506080     1.33891918     0.31546933     0.62410287
O       1.84168320     4.77762521     4.16043980    -0.73363782    -0.19989280     0.30146890
O       2.05858825     0.85158124     4.16692280    -1.26705245     0.27974718    -1.06986393
O       3.78590423     2.86135225     3.31292783    -0.17670093     0.32534777    -0.71119182
O       0.10926722     2.82508821     3.07680380    -0.75829085    -0.02585014     0.73951279
O       6.00532399     6.66384698     1.75095899    -1.96388286    -0.37704188    -0.32885861
O       5.73337102     2.93244102     1.59695301     0.23678455    -0.10118297     0.32252599
O       1.86954899     6.61216102     2.01968102     0.17997446     0.17597254     0.07923063
O       1.92583101     2.68841099     1.52811800     0.10536179     0.45925807    -0.06869759
