# total energy = -19071.54233467 eV

CRYSTAL
PRIMVEC
        7.60600008     0.00000000     0.00000000
        0.00000000     7.60600008     0.00000000
       -1.89786986    -1.89786986     4.85670466
PRIMCOORD
22 1
Ti      3.98592799     6.59738698     1.36148803     0.47775974     2.27101718     1.03180851
Ti      3.59510800     2.85778099     1.21762500     0.60602107    -1.92170004    -1.55020866
Ti      0.11833499     6.61017603     1.08929999    -0.16667645    -0.35686951    -0.39121432
Ti     -0.07380700     2.84953202     1.05648899    -0.58427055    -0.02105760    -2.75969100
Ti      5.72298322     2.96869220     3.40214282    -1.11315644    -0.61348138     0.45563230
Ti     -1.26840977    -0.70688878     3.82974080    -1.28349080     0.15266625    -1.49882360
Ti      1.72966125     3.01438523     3.77315884     2.99461510    -1.35793609    -1.14251022
Ti      1.46495525    -1.09734576     4.06643284     1.53127813     2.01568418    -0.15962366
O       3.63243500     4.78122499     0.62386500    -0.96300627    -0.93478429     4.33792470
O       4.15580802     0.92634499     1.09941601    -1.52432381    -1.99469343     0.29929375
O       0.13283402     4.79908297     0.58368902     0.62778392    -1.04983426     1.20939955
O       7.00210899     1.07637198     0.22517497    -0.14455107    -1.31683751     3.46174461
O       5.39962221     4.65738423     3.96298879     0.78941869     0.92734532    -0.27099746
O       5.60759623     1.02092024     3.81364079     0.64491879     1.50464355    -0.54622747
O       2.39840524     4.76012521     4.42203879    -0.80338519     0.78161745    -2.64241214
O       2.03789022     0.73971825     4.29626383    -0.18137520     0.41954351    -2.47413441
O       3.47385724     2.58187321     3.04068381    -0.69186329     1.42186763     0.84165299
O       0.07991222     3.02319820     3.01279082    -0.19805729    -0.12137360    -0.20866952
O       5.87091699     6.52956301     1.88961899     0.30658283     0.10137529     0.65798822
O       5.67788202     3.02919801     1.49485202    -0.24921686     0.30080041     0.57048301
O       1.89567902     6.58532401     2.13924502    -0.10206203    -0.36053333    -0.13251059
O       1.75554902     2.07132999     0.53003102     0.02705676     0.15253975     0.91109517
