# total energy = -19072.76248605 eV

CRYSTAL
PRIMVEC
        5.17600016     0.00000000     0.00000000
        0.00000000     5.50899976     0.00000000
        0.00000000     0.00000000     9.26300011
PRIMCOORD
22 1
Ti      1.70567200     3.33273001     3.31106200    -0.49535946    -0.77911062     1.55247303
Ti      3.81497998     2.39148497     5.76303400    -1.76313516    -1.67348153     0.34169125
Ti      4.28068401     2.09068401     1.57946301     0.38101732    -1.79908228    -1.03352266
Ti      0.92889002     3.39101502     8.25636199     0.62820995    -2.24353748     0.49533169
Ti      1.70128099     0.42772498     1.27732000     0.73604052     1.81116647    -0.49225177
Ti      3.48319098     5.32680499     7.85399202     0.05784007     1.74110311    -0.49453568
Ti      1.13412898     5.36044299     6.15911402    -1.05185129     2.43503511    -0.46153890
Ti      4.26537200     5.06558399     3.48063500    -0.80603111    -0.53664111     1.37273151
O       3.22629098     3.75056598     4.61808901     1.19576139    -0.50472136    -0.10002109
O       0.68403102     2.15414099     0.43281000     0.79882097     0.15536462    -1.44704748
O       4.45761802     3.53037401     7.55732102    -0.63422839     0.70775451    -0.78755979
O       3.49639998     0.86924899     0.15835799    -0.16172528     0.15835430     0.27326826
O       1.72402900     4.81310601     9.07057798    -0.39847563     0.13465669     0.20283492
O       3.90022202     1.13046998     4.25463801     0.12332969     0.63879056     2.11482955
O       0.98184600     4.90046497     4.39810002    -1.56165033    -0.41745115     0.11313989
O       4.98095299     3.44493199     2.54110598     1.45157442     0.42763118     0.59698466
O       4.88412700     0.96689299     6.79944802     0.58855941    -1.51886870     0.26620466
O       2.54165400     1.87278099     2.37760201    -0.75480521     0.25835894    -0.31008570
O       2.21721802     4.07659098     6.85536300    -0.56393184    -2.21324859     0.79410196
O       0.07711499     0.62371900     2.26368698     0.65832272    -0.39963648    -0.82479015
O       2.42210201     1.07143402     6.69801601     0.51587970     0.94309719    -0.15976687
O       2.53422001     4.48127002     2.34511899     1.05583727     2.67446661    -2.01247081
