# total energy = -4986.47207026 eV

CRYSTAL
PRIMVEC
        3.90059243     0.00000000     0.00000000
        1.83556615     3.44170281     0.00000000
       -2.86811593    -1.72087339     5.15135435
PRIMCOORD
6 1
Ti      1.37658258     2.58140965     1.28783824     0.00042989    -0.00042989     0.00000000
Ti      1.49145992    -0.86058036     3.86351547    -0.00042989     0.00042989     0.00000000
O       0.45893196     0.86042132     0.83911342    -0.00012701    -0.00021083    -2.67831864
O       2.40911037     0.86040795     4.31224035     0.00012701     0.00021083     2.67831864
O      -0.45889489    -0.86039903     3.41479060    -0.00021083    -0.00012701    -2.67831864
O       3.32693714     2.58122822     1.73656312     0.00021083     0.00012701     2.67831864
