# total energy = -4989.70230529 eV

CRYSTAL
PRIMVEC
        3.26349378     0.00000000     0.00000000
        0.00000000     4.18369545     0.00000000
        0.00000000    -0.00006144     4.69550563
PRIMCOORD
6 1
Ti      1.63174689     2.09181695     2.34775292     0.00000000     0.00000000     0.00000000
Ti      0.00000000     0.00000000     0.00000000     0.00000000     0.00000000     0.00000000
O       1.63174689     0.81532864     0.91508495     0.00000000     0.04155778    -0.07190170
O       1.63174689     3.36830527     3.78042089     0.00000000    -0.04155778     0.07190170
O       0.00000000     1.27646346     3.26283871     0.00000000    -0.04216277    -0.07146975
O       0.00000000     2.90717045     1.43266713     0.00000000     0.04216277     0.07146975
