# total energy = -19853.35232852 eV

CRYSTAL
PRIMVEC
        7.02608403     0.00000000     0.00000000
        0.00002184     2.49262604     0.00000000
        0.00000000     0.00000000    11.17790708
PRIMCOORD
24 1
Ti      2.54663030     1.47712780     4.14692390    -1.42342597     0.82425356    -1.76317887
Ti      4.47947528     1.01549800     7.03098351     1.42342597    -0.82425356     1.76317887
Ti      6.05955247     1.01549880     1.44198515    -1.42278834    -0.82488142     1.76585282
Ti      0.96655316     1.47712709     9.73592236     1.42278834     0.82488142    -1.76585282
Ti      2.54661967     0.23081483     1.44202998    -1.42342597     0.82425356     1.76317887
Ti      4.47948596     2.26181107     9.73587753     1.42342597    -0.82425356    -1.76317887
Ti      0.96654248     0.23081398     7.03093869     1.42278834     0.82488142     1.76585282
Ti      6.05956315     2.26181192     4.14696872    -1.42278834    -0.82488142    -1.76585282
O       2.22380754     0.87769593     5.70400055    11.59613464    -1.75285280     6.59233975
O       4.80229809     1.61492992     5.47390686   -11.59613464     1.75285280    -6.59233975
O       1.28929072     0.87770605     0.11508284   -11.59777732    -1.75270985     6.59168823
O       5.73681496     1.61491980    11.06282424    11.59777732     1.75270985    -6.59168823
O       4.80228741     0.36861685     0.11504654   -11.59613464     1.75285280     6.59233975
O       2.22381822     2.12400895    11.06286054    11.59613464    -1.75285280    -6.59233975
O       5.73680427     0.36860678     5.70403681    11.59777732     1.75270985     6.59168823
O       1.28930126     2.12401907     5.47387060   -11.59777732    -1.75270985    -6.59168823
O       0.25528700     1.51615645     3.01943162     3.73856510    -1.07626213     7.70451840
O       6.77081863     0.97646935     8.15847574    -3.73856510     1.07626213    -7.70451840
O       3.76833830     0.97644624     2.56955760     3.74669853     1.07650278    -7.70473926
O       3.25776733     1.51617961     8.60834962    -3.74669853    -1.07650278     7.70473926
O       0.25527631     0.26984343     2.56952192     3.73856510    -1.07626213    -7.70451840
O       6.77082931     2.22278242     8.60838530    -3.73856510     1.07626213     7.70451840
O       3.25775669     0.26986654     8.15851138    -3.74669853    -1.07650278    -7.70473926
O       3.76834894     2.22275926     3.01939594     3.74669853     1.07650278     7.70473926
