# total energy = -4990.20726649 eV

CRYSTAL
PRIMVEC
        3.73755214     0.00000000     0.00000000
        0.55748869     3.69574111     0.00000000
       -2.14755410    -1.84789954     4.78349693
PRIMCOORD
6 1
Ti      0.41798061     2.77194710     1.19587397     0.00137631    -0.00137631     0.00000000
Ti      1.72950652    -0.92410519     3.58762243    -0.00137631     0.00137631     0.00000000
O       0.13941148     0.92392975     0.77919244    -0.00023654     0.00010233     0.06666719
O       2.00807548     0.92391202     4.00430397     0.00023654    -0.00010233    -0.06666719
O      -0.13938862    -0.92391007     3.17094090     0.00010233    -0.00023654     0.06666719
O       2.28687553     2.77175185     1.61255551    -0.00010233     0.00023654    -0.06666719
