# total energy = -19066.50513762 eV

CRYSTAL
PRIMVEC
        7.60600008     0.00000000     0.00000000
        0.00000000     7.60600008     0.00000000
       -1.89786986    -1.89786986     4.85670466
PRIMCOORD
22 1
Ti      3.81013298     6.69675001     1.50460899     0.07808803    -0.92277055    -3.04419730
Ti      3.50704899     2.78763998     1.40717698     3.94390556     0.65697289    -0.78772099
Ti     -0.02930398     6.55748003     0.99049202     1.14013247    -1.35879844    -0.80687443
Ti      0.37149000     2.39523398     0.95962802    -1.51973233     2.68703314     0.45737834
Ti      5.82430320     2.59938924     3.52289980    -1.20037498     4.71274720     1.34735626
Ti     -1.16900975     0.41656823     3.06147481     1.60355650    -3.01474736    -1.50223983
Ti      1.64689724     2.69386522     3.87455682     1.16975236     1.88634041     1.45204493
Ti      1.50242322    -0.75094776     3.97844283     1.15432419    -1.16711389     0.65448329
O       3.98895298     4.66948900     1.07211602    -2.34784563     1.02737901    -1.05127228
O       4.27058402     0.80075599     0.84691803    -0.68814110     1.09419789     1.68387316
O       0.42756897     4.38346399     0.67158001     0.74782080    -0.92870697     0.95893210
O       7.03080098     0.85107302     1.06787800     0.21111336    -1.41048175     1.10275195
O       5.73520520     4.36410922     4.14015681    -0.78062012     2.94795444     0.96767309
O       4.86105323     1.04754023     3.86943380     1.67041858    -2.21751302     0.56207061
O       1.54158324     4.74566121     4.48736683    -0.35911254    -0.42066889     0.03462480
O       2.44606421     0.98109123     4.22935080    -3.18114665    -1.19987413    -0.11364846
O       3.22712523     3.20455021     3.13348181    -1.02290734    -0.20226748     0.38121015
O       0.00714220     2.99814023     2.81354982     2.03340757    -2.41142415     1.35696782
O       5.85834602     6.58651000     2.08346402    -0.52167625    -1.14829006    -0.48533473
O       5.38566199     2.99479001     1.87865099    -0.99571509    -1.16185032    -1.49208139
O       1.94863098     6.76267099     2.14083297    -0.17570668    -0.48889313    -0.47659786
O       1.82563098     1.28749402     0.18677502    -0.95954017     3.04077542    -1.19939950
