# total energy = -19075.48820561 eV

CRYSTAL
PRIMVEC
        7.60600008     0.00000000     0.00000000
        0.00000000     7.60600008     0.00000000
       -1.89786986    -1.89786986     4.85670466
PRIMCOORD
22 1
Ti      3.87204301     6.58342701     1.25573899     1.05851431    -1.02882268    -1.33043377
Ti      3.80085799     2.77500698     1.15087802    -1.04058497     0.66943041     1.22119064
Ti      0.22362702     6.80077599     1.04218999    -0.69788147    -0.14966371     0.81888329
Ti      0.02223100     2.95176298     1.11638498     0.31538114    -0.50142572    -0.11102747
Ti      5.59229925     3.00205524     3.54069281     0.13106075    -1.05861869     0.41488056
Ti      6.00879820    -0.97069079     3.59331483     0.26902748     1.10457255     0.12242261
Ti      1.83041125     2.71209125     3.65865282    -0.17984205     1.09998030    -0.12216601
Ti      1.53351625    -1.12813075     3.90034982    -0.60763495    -0.17844131    -1.13163934
O       3.37021899     4.74243799     0.77311902     1.26889207     0.17186957    -0.28809967
O       3.94992298     0.82403402     0.82466797    -0.27884421     1.16789499     1.55172690
O       0.14651098     4.89690499     0.73283000     0.10234306    -0.65738993    -0.09345963
O       7.26530598     1.03022201     0.67095400     1.26919007     0.33312742     0.66909256
O       5.38076720     4.83604024     3.99788179     0.46408481     0.14816142    -0.87778343
O       5.85732524     0.95445822     3.95564180    -0.17110492     0.26760129     0.38138087
O       2.17860422     4.73054023     4.10100780    -0.94791261    -0.82826654     0.36622524
O       1.79593625     0.87002725     4.15982082    -0.24237490    -0.43551264    -1.03542374
O       3.69904624     2.66019224     3.26507380     0.92573786     0.00748988     0.30539343
O      -0.08079579     2.95052724     3.13022584     0.51402156     0.15097986    -0.38913018
O       5.79749402     6.66095699     1.67498401    -0.56238095    -0.60703794     1.00909666
O       5.54977901     3.11563102     1.59022701     1.43250120     0.09733892    -0.06624527
O       2.25392202     6.67397501     2.22511001    -0.84422204     0.51815847    -1.29836284
O       1.94739101     2.73499298     1.64291100    -2.17797124    -0.29142591    -0.11652192
