# total energy = -19074.05539458 eV

CRYSTAL
PRIMVEC
        5.17600016     0.00000000     0.00000000
        0.00000000     5.50899976     0.00000000
        0.00000000     0.00000000     9.26300011
PRIMCOORD
22 1
Ti      1.88337099     3.49126199     3.40032002     0.32558637     0.10137426    -0.27684466
Ti      3.57276402     2.15704998     5.88785702     0.71369582     0.56871537    -0.24374658
Ti      4.36889801     2.22359201     1.36549199     0.24518280     0.97607674    -2.98146904
Ti      0.69164700     3.27036001     7.93750100    -0.63681749    -1.93119152     2.93051336
Ti      1.80495798     0.49228301     1.22401799    -0.19986915     2.33066011    -1.65416431
Ti      3.19202098     5.09691600     8.06724600     0.64869497    -0.79362991     1.13027125
Ti      0.76059001     0.05884700     6.06935502    -0.01543125     1.47645654    -1.24525900
Ti      4.41619900     4.97755298     3.30449798     0.36348856     0.66863259     1.59781162
O       3.59189901     3.38561699     4.38275801    -0.27203696    -0.31909228     1.04053869
O       0.91056799     1.90529300     0.13634098    -0.18890699     0.07964895    -0.38196220
O       4.35980299     3.62353302     9.07204999    -1.31777365     0.98764002    -0.72597799
O       3.50434600     0.92350802     0.10715300    -0.46500526    -0.49609994     0.15111510
O       1.73327600     4.63942602     9.21145099    -0.30383843    -0.24547694    -1.15005590
O       4.36497998     0.66648001     4.91466301    -0.74266497    -0.02394829    -0.25956659
O       1.16476300     5.11006600     4.26284698    -0.14171463    -1.61477474     1.38995380
O       0.13098597     3.65177701     2.37433101     0.42970683    -0.90046057     0.16700992
O       5.08747801     1.73892899     6.93583800     0.10037102     0.17383492    -0.21958875
O       2.46589201     2.20835599     2.14809699     1.81349615    -0.61351224     0.32196317
O       2.13881803     3.60735797     6.82679902     0.73419909     0.91374752    -0.73207047
O       0.18526400     0.89171198     2.16323199    -1.03945137    -1.26180868     1.50189658
O       2.43995200     0.87972400     6.70131897    -0.78709185    -1.10329780     0.31109074
O       2.73999201     4.78214602     2.40399002     0.73618038     1.02650612    -0.67145849
