# total energy = -19927.47562999 eV

CRYSTAL
PRIMVEC
        6.17571865     0.00000000     0.00000000
        1.92849015     6.28355373     0.00000000
        0.00000000     0.00000000    11.18248774
PRIMCOORD
24 1
Ti      3.38122242     3.72362815     4.14862320    -0.06891125    -2.14795771     0.77781325
Ti      4.72298627     2.55992572     7.03386461     0.06891125     2.14795771    -0.77781325
Ti      6.11182770     2.55992788     1.44257603    -0.28889491    -0.71956951     0.01596681
Ti      1.99238110     3.72362623     9.73991190     0.28889491     0.71956951    -0.01596681
Ti      2.41697749     0.58185139     1.44262086    -0.06891125    -2.14795771    -0.77781325
Ti      5.68723123     5.70170267     9.73986707     0.06891125     2.14795771     0.77781325
Ti      1.02813604     0.58184905     7.03381977     0.28889491     0.71956951     0.01596681
Ti      7.07607268     5.70170502     4.14866803    -0.28889491    -0.71956951    -0.01596681
O       2.63370808     2.21254613     5.70633790     1.80970120     2.08625739    -0.72256279
O       5.47050063     4.07100781     5.47614990    -1.80970120    -2.08625739     0.72256279
O       1.81230342     2.21257148     0.11513000    -0.54648252    -0.20453082     1.16575069
O       6.29190535     4.07098251    11.06735749     0.54648252     0.20453082    -1.16575069
O       4.50625567     0.92923086     0.11509372    -1.80970120    -2.08625739    -0.72256279
O       3.59795304     5.35432308    11.06739377     1.80970120     2.08625739     0.72256279
O       5.32766039     0.92920556     5.70637418     0.54648252     0.20453082     1.16575069
O       2.77654826     5.35434845     5.47611362    -0.54648252    -0.20453082    -1.16575069
O       1.39739518     3.82201363     3.02066892     0.51891360     1.92258758     1.92178154
O       6.70681353     2.46154031     8.16181888    -0.51891360    -1.92258758    -1.92178154
O       4.06770484     2.46148172     2.57061054     0.78205531     1.72841111     0.92346989
O       4.03650386     3.82207222     8.61187707    -0.78205531    -1.72841111    -0.92346989
O       0.43315015     0.68023669     2.57057483     0.51891360     1.92258758    -1.92178154
O       7.67105849     5.60331726     8.61191279    -0.51891360    -1.92258758     1.92178154
O       3.07225890     0.68029527     8.16185454    -0.78205531    -1.72841111     0.92346989
O       5.03194980     5.60325867     3.02063320     0.78205531     1.72841111    -0.92346989
