# total energy = -19518.30298040 eV

CRYSTAL
PRIMVEC
        7.60600008     0.00000000     0.00000000
        0.00000000     7.60600008     0.00000000
       -1.89786986    -1.89786986     4.85670466
PRIMCOORD
23 1
Ti      3.76064501     6.73054602     1.33136498     0.58071857     0.59780150    -1.00144737
Ti      3.82648498     2.96551598     1.18121797    -0.86750596    -0.22961760     0.69233869
Ti      0.04107098     6.60831602     1.24691798    -0.85782472     0.42858146    -0.27985748
Ti     -0.06294299     2.84834603     0.94078100     0.88279451    -0.92643463     2.43372771
Ti      5.66932925     2.72330520     3.61745880    -0.48515578     1.00206289    -0.07623607
Ti      5.63592324    -1.13194676     3.56893780     1.26991383    -0.40129022     0.63559699
Ti      2.12599521     2.96744922     3.69213481    -0.92662078     0.44122435    -0.52196087
Ti      1.89766523    -0.89841380     3.70409083    -1.06700924    -0.08650326     0.39084485
O       3.99754401     4.91707098     1.00388999    -0.41688268    -2.35507532    -1.21798627
O       3.59004398     1.01977298     0.81718398     0.51722722     0.61867038     0.08499376
O      -0.25236902     4.67611398     0.70084500     0.62817730     0.20421432     0.98056537
O      -0.12064199     0.89576400     0.63116003     0.84574284    -0.32703236     1.44636896
O       5.52849920     4.63660921     4.14777384     1.10089356     0.24599681    -1.68514740
O       5.85856224     0.87943322     3.98150280     0.29746158     0.27728587    -1.09696440
O       1.97467920     4.84206423     4.11065983    -0.16031091    -1.10094164     0.29929992
O       1.74489023     1.06699623     3.96428083     0.26179291     0.60221815     1.37835837
O       3.84985525     2.70787323     3.28127583     0.00185942     0.08323024    -0.99165840
O       3.78746424    -0.93136276     3.30897582     0.07233621     0.56623426    -0.37653280
O       0.08167422    -1.03077378     3.21985079    -1.15119438    -0.20015840     0.07812120
O       5.74577203     6.65145201     1.66634498    -0.46383001     0.43707510     0.12220869
O       5.74737199     2.64083901     1.67930802     0.48212573     0.61847087    -1.07700415
O       1.91217898     6.54998100     1.65633098    -0.11624013     0.19993008    -0.37096353
O       1.82826501     3.14235198     1.71550200    -0.42846936    -0.69594261     0.15333396
