# total energy = -19951.78400973 eV

CRYSTAL
PRIMVEC
        5.77355187     0.00000000     0.00000000
        0.00002439     4.54181253     0.00000000
        0.00000000     0.00000000     9.19238399
PRIMCOORD
24 1
Ti      2.09264933     2.69147394     3.41030890    -0.21322449     1.37499974    -2.42765913
Ti      3.68092698     1.85033875     5.78207514     0.21322449    -1.37499974     2.42765913
Ti      4.97932555     1.85034033     1.18584640    -0.21123446    -1.37478531     2.42845797
Ti      0.79425076     2.69147256     8.00653775     0.21123446     1.37478531    -2.42845797
Ti      2.09263724     0.42056777     1.18588325    -0.21322449     1.37499974     2.42765913
Ti      3.68093907     4.12124507     8.00650089     0.21322449    -1.37499974    -2.42765913
Ti      0.79423867     0.42056604     5.78203829     0.21123446     1.37478531     2.42845797
Ti      4.97933765     4.12124680     3.41034575    -0.21123446    -1.37478531    -2.42845797
O       1.82737424     1.59924943     4.69080319     0.90358009    -1.28406802     1.65396094
O       3.94620212     2.94256325     4.50158085    -0.90358009     1.28406802    -1.65396094
O       1.05945268     1.59926775     0.09464076    -0.90338391    -1.28557391     1.65488936
O       4.71412373     2.94254498     9.09774302     0.90338391     1.28557391    -1.65488936
O       3.94619003     0.67165694     0.09461094    -0.90358009     1.28406802     1.65396094
O       1.82738633     3.87015575     9.09777285     0.90358009    -1.28406802    -1.65396094
O       4.71411164     0.67163867     4.69083301     0.90338391     1.28557391     1.65488936
O       1.05946467     3.87017407     4.50155103    -0.90338391    -1.28557391    -1.65488936
O       0.20978134     2.76258784     2.48309225     0.90000548    -0.43026939     0.75444525
O       5.56379502     1.77922485     6.70929179    -0.90000548     0.43026939    -0.75444525
O       3.09656350     1.77918249     2.11312901     0.90063103     0.43045425    -0.75448099
O       2.67701287     2.76263025     7.07925488    -0.90063103    -0.43045425     0.75448099
O       0.20976925     0.49168157     2.11309965     0.90000548    -0.43026939    -0.75444525
O       5.56380712     4.05013117     7.07928424    -0.90000548     0.43026939     0.75444525
O       2.67700077     0.49172393     6.70932110    -0.90063103    -0.43045425    -0.75448099
O       3.09657559     4.05008875     2.48306289     0.90063103     0.43045425     0.75448099
