# total energy = -19076.31305214 eV

CRYSTAL
PRIMVEC
        7.60600008     0.00000000     0.00000000
        0.00000000     7.60600008     0.00000000
       -1.89786986    -1.89786986     4.85670466
PRIMCOORD
22 1
Ti      3.62478500     6.63009299     1.27160198     1.19123445     0.36231176     0.06439716
Ti      3.82916701     2.90528799     1.30576899     0.92456467    -0.09587493    -0.75381122
Ti      0.10473503     6.68003102     1.07383701    -1.33520059    -0.13233164    -0.15719602
Ti      0.15158298     2.88096398     1.08722800    -1.31706634    -0.21956021    -0.49984192
Ti      5.80561123     2.83341725     3.43843983    -0.60949849     0.14244405     0.72911962
Ti      6.02315123    -0.92565378     3.58989581    -0.26518239    -0.31754421    -0.60159980
Ti      1.92567125     2.77284820     3.62086782    -0.21144889     0.41598176     0.71359992
Ti      1.35583324    -0.91883078     3.96365783     0.18182411    -0.65588326     0.08532955
O       3.61344902     4.79776802     0.86335898     0.28590035    -1.53541658     0.24527151
O       3.89582202     0.89736402     0.97667499    -0.74925291     0.45702815     0.16895214
O       0.19752298     4.77395499     0.59006502     0.26943526    -0.32886299     0.53161537
O      -0.04458699     1.01867600     0.68768801     0.70896602    -0.99825637     0.37025956
O       5.70977924     4.77075125     3.89825084     0.33341204     0.53970406    -0.00170696
O       5.54307121     0.91219723     3.89690080     0.77751654     0.47791940    -0.00953494
O       1.80201422     4.72365024     4.27739184    -0.49641644     0.64823217    -1.51848561
O       1.84264223     0.91953522     4.07228882    -0.13941941     0.23741370     0.61720048
O       3.79874022     2.92125422     3.21415880     0.16975792     0.03488551     0.41479700
O       0.02039523     2.76564224     3.05414179     0.61952965     0.34447884     0.44770816
O       5.81782401     6.63233199     1.63808601    -0.01441567    -0.20678593     0.81889897
O       5.74172101     2.86448498     1.45866799    -0.04175936     0.48725611     0.59630898
O       1.77475900     6.63475398     2.16833400     0.76757305    -0.05627813    -1.79019449
O       1.98150400     2.65406902     1.66991798    -1.05005332     0.39913872    -0.47108824
