# total energy = -19517.48833610 eV

CRYSTAL
PRIMVEC
        5.93400000     0.00000000     0.00000000
        0.00000000     9.29699974     0.00000000
        0.00000000     0.00000000     4.64899994
PRIMCOORD
23 1
Ti      4.51067301     7.02001698     2.16225201     0.61766303     1.54919410     0.53622613
Ti      4.47053698     2.27532501     2.37988202     1.41373420     1.30117743    -0.15975273
Ti      1.46476501     7.01567000     2.27263399    -0.72789294     1.05899742     0.26691249
Ti      1.49699899     2.25768801     2.30940397    -0.85805766     0.87132610    -0.30303213
Ti      2.98682801     4.51216698     0.26658500    -0.02579537    -1.38080632    -1.38544331
Ti      2.98458599     9.23637000     4.47052402    -0.08354520    -0.54847333     0.58168737
Ti      0.03499502     4.76458400     0.09214902    -0.37942066    -2.05541082    -1.80030536
Ti      5.88684798     0.15638500     4.64234602     0.51796178    -0.79542557     0.37479936
O       4.31793502     5.58388602     1.04214300     0.30912385    -0.80496873    -1.39290697
O       4.38425998     0.82198901     0.89461600     0.14871935     0.47796466     0.25598350
O       1.49449202     5.50970298     1.02724798     0.55348338     0.52364443     0.14935852
O       1.43856698     0.84819001     0.93788799     0.46029526     0.94956968     0.19684913
O       4.44398101     8.41195900     3.56747298    -0.14453410     0.30685433     0.67633639
O       4.48047101     3.69472699     3.78633498    -0.81330914     0.90939567     0.72827604
O       1.45254398     8.44849001     3.78587301    -0.00613825    -1.41593455    -1.74236552
O       1.37199098     3.76828803     3.74809399     0.80056392     0.54624624     0.46502403
O       3.01492600     1.47341499     3.20670301    -1.22230033    -1.11499684     0.85091462
O       5.79845400     6.07491398     3.20478098     0.79045588     0.04881575     0.63923150
O       0.02856202     1.36729299     3.20590199     0.12658548     0.29580630     0.04594152
O       2.96440698     7.89161202     1.30428502    -0.53394659    -0.98184913     0.95300854
O       3.05414301     3.37841600     1.65919600    -1.04531015    -0.65738093    -0.95481808
O       0.09522402     7.74317801     1.25522902    -0.48882448     0.62576869     0.21813170
O       5.85226000     3.14500999     1.31073501     0.59048877     0.29048591     0.79994325
