# total energy = -4984.26402043 eV

CRYSTAL
PRIMVEC
        3.33335139     0.00000000     0.00000000
        2.45781767     4.60840736     0.00000000
       -0.00001581    -0.00007120     5.40471465
PRIMCOORD
6 1
Ti      2.89557636     2.30416797     2.70235744     0.00000000     0.00000000     0.00000000
Ti      0.00000000     0.00000000     0.00000000     0.00000000     0.00000000     0.00000000
O       2.14566494     0.89809680     1.05329934     0.09422171     0.50062688    -0.17954380
O       3.64548780     3.71023924     4.35141559    -0.09422171    -0.50062688     0.17954380
O       0.74990471     1.40604255     3.75565783    -0.09510000    -0.49905799    -0.17968547
O       1.70789678     3.20229358     1.64905705     0.09510000     0.49905799     0.17968547
