# total energy = -19960.68376077 eV

CRYSTAL
PRIMVEC
        5.93400000     0.00000000     0.00000000
        0.00000000     9.29699974     0.00000000
        0.00000000     0.00000000     4.64899994
PRIMCOORD
24 1
Ti      4.46665600     6.88407701     2.25957601    -1.68923212     1.30904321     0.88878133
Ti      4.44739802     2.45095598     2.42190298     0.41754062    -1.31225066    -1.80840151
Ti      1.46621400     6.93282503     2.18420799     1.55449340     1.19124139     0.90245523
Ti      1.45375198     2.25872102     2.39133601    -0.38494082    -0.06585549    -0.86887661
Ti      3.00625601     4.63751003     0.05963198    -2.06874302     0.33787753     0.09333519
Ti      3.00005098     0.09804099     0.01030499    -0.63869312    -0.81640886     0.02750413
Ti      5.91244201     4.67951601     4.51635399     2.18824640    -0.20027461     0.72888565
Ti      5.89752900     9.27064201     0.05978697     0.84700706    -0.13588054    -0.79974502
O       4.51090098     5.55883000     0.97186598    -0.06122802    -0.95534438    -0.89506716
O       4.44804197     0.89534700     1.01875902    -0.04266927     0.23215322    -0.03913272
O       1.50469799     5.54989701     0.88471398    -0.30960593    -0.37268668     0.00931537
O       1.47322798     0.79243103     0.96488301    -0.14263894     1.22199076     0.95857163
O       4.42375300     8.46001199     3.82174202     0.10756214    -0.66242595    -1.06103810
O       4.41881001     3.81323999     3.78104099     0.55650623    -0.59050625    -0.57722804
O       1.43172599     8.44550502     3.75032299     0.24707282    -0.30539806    -0.61006284
O       1.55418797     3.82234798     3.66491801    -0.68738109    -0.11912337     0.63068695
O       2.99716998     5.98814097     3.23229698     0.33239774     0.80570767    -0.35891482
O       2.95038198     1.42707600     3.19191298     0.41231048     0.21606993     0.87273841
O       0.01231798     6.09882602     3.24376399    -0.11770155    -0.38890238     0.25578244
O       5.90991900     1.50878801     3.35340602    -0.23855810     0.33718231    -0.49920455
O       2.98301698     7.82731799     1.34875798     0.03709949    -0.52109647     0.94128970
O       2.92038102     3.10317599     1.31476099     0.62638113     0.95407220     0.38898517
O       0.03046198     7.76386398     1.30188801    -0.42107024    -0.08279289     0.96912370
O       0.01486401     3.25066002     1.45185801    -0.52415583    -0.07639162    -0.14978404
