# total energy = -19961.10617702 eV

CRYSTAL
PRIMVEC
        5.93400000     0.00000000     0.00000000
        0.00000000     9.29699974     0.00000000
        0.00000000     0.00000000     4.64899994
PRIMCOORD
24 1
Ti      4.43734100     6.94305497     2.23754599    -0.00446009    -0.45937506     0.79345147
Ti      4.46324100     2.25770902     2.28324002     0.08316185     0.97470763     0.47757539
Ti      1.50006103     7.01903901     2.39381701    -0.13398923    -1.43298534    -0.24907700
Ti      1.46835601     2.31570600     2.29110799     0.10462697     0.76679375     0.24750502
Ti      2.98993100     4.65058700     4.63265498    -1.14119485    -0.91823795     0.22412803
Ti      2.97550901     0.01985298     4.63539199     0.25494194     0.63594332    -0.18202363
Ti      5.90426802     4.65858499     4.61806398     1.11640632    -0.64057516    -0.09735383
Ti      5.92580802     9.23636402     0.07287998    -0.33374140     0.94584801    -0.48221186
O       4.52581902     5.53566400     0.99105898    -0.36891873     0.19216484    -0.63242862
O       4.45652701     0.92349802     0.92455198    -0.19728493    -0.76542181    -0.28614975
O       1.48652700     5.54919898     0.94474501    -0.08860822     0.20508438    -0.05986893
O       1.48605598     0.98398800     0.93114902    -0.11636869    -0.76636926    -0.22259771
O       4.41627599     8.39119699     3.79612402     0.11962936     0.23007499     0.03944408
O       4.46324000     3.71333101     3.72706898     0.25102307     0.95003017     0.48428726
O       1.46558502     8.51960598     3.78998101     0.28206683    -1.16039534    -0.75338467
O       1.54059198     3.76678199     3.69249799    -0.57763016     0.35928660     0.38348532
O       3.03777301     6.00681098     3.24044700    -0.46519295     1.32251399    -0.43049282
O       2.99633701     1.45710400     3.19440498    -0.74253924    -0.70230017     0.63858024
O       5.90223201     6.17862298     3.27036102     0.26250356    -0.55998673     0.41605941
O       5.90855002     1.42046599     3.30005998     0.27352305     0.16451261    -0.63887978
O       2.89110101     7.86159698     1.40833799     0.52456823     0.35283185     0.17660451
O       2.96526202     3.27904900     1.36184199    -0.11446427    -0.67852595     0.59627298
O       0.02618401     7.83111097     1.45641697     0.00963624     1.01744066    -0.59921998
O       5.84126000     3.22069202     1.37674299     1.00230534    -0.03305926     0.15629459
