# total energy = -19888.72174294 eV

CRYSTAL
PRIMVEC
        8.85053678     0.00000000     0.00000000
        0.00002752     3.13988253     0.00000000
        0.00000000     0.00000000    14.08045753
PRIMCOORD
24 1
Ti      3.20791000     1.86069137     5.22374944     0.07406657     0.16968979     2.00884195
Ti      5.64265394     1.27919085     8.85670852    -0.07406657    -0.16968979    -2.00884195
Ti      7.63302742     1.27919186     1.81642328     0.08287388    -0.16980909    -2.00935283
Ti      1.21753658     1.86069048    12.26403479    -0.08287388     0.16980909     2.00935283
Ti      3.20789660     0.29075017     1.81647975     0.07518011     0.17054674    -2.00858793
Ti      5.64266740     2.84913218    12.26397833    -0.07518011    -0.17054674     2.00858793
Ti      1.21752312     0.29074910     8.85665205    -0.08191975     0.17045109    -2.00970713
Ti      7.63304088     2.84913325     5.22380590     0.08191975    -0.17045109     2.00970713
O       2.80126032     1.10560592     7.18514987     1.98419021     0.35932440    -1.50650812
O       6.04930367     2.03427637     6.89530809    -1.98419021    -0.35932440     1.50650812
O       1.62407892     1.10561866     0.14496623    -1.98270205     0.35932517    -1.50626129
O       7.22648514     2.03426362    13.93549131     1.98270205    -0.35932517     1.50626129
O       6.04929022     0.46433504     0.14492050    -1.98206236    -0.35889271    -1.50602295
O       2.80127378     2.67554718    13.93553703     1.98206236     0.35889271     1.50602295
O       7.22647168     0.46432236     7.18519554     1.98348187    -0.35880684    -1.50495774
O       1.62409220     2.67555993     6.89526242    -1.98348187     0.35880684     1.50495774
O       0.32157699     1.90985454     3.80348292    -1.20806566     0.47057067     1.51209358
O       8.52898701     1.23002769    10.27697497     1.20806566    -0.47057067    -1.51209358
O       4.74685709     1.22999858     3.23679079    -1.20936819    -0.47028760    -1.51234992
O       4.10370691     1.90988370    10.84366693     1.20936819     0.47028760     1.51234992
O       0.32156353     0.33991328     3.23674584    -1.20828447     0.47063341    -1.51187581
O       8.52900046     2.79996901    10.84371187     1.20828447    -0.47063341     1.51187581
O       4.10369351     0.33994238    10.27701985     1.20963661     0.47054573    -1.51379745
O       4.74687048     2.79993984     3.80343798    -1.20963661    -0.47054573     1.51379745
