# total energy = -19075.38154333 eV

CRYSTAL
PRIMVEC
        5.17600016     0.00000000     0.00000000
        0.00000000     5.50899976     0.00000000
        0.00000000     0.00000000     9.26300011
PRIMCOORD
22 1
Ti      1.89867601     3.24235500     3.36704297    -0.56287743     1.13970798    -0.69165940
Ti      3.34227499     2.22620202     5.91654800    -0.50486586     0.64072660    -0.61836108
Ti      4.48522398     2.23502203     1.26268698     0.40266884     0.08756692    -1.79221383
Ti      0.68640401     3.31460998     8.05788999     0.63672211    -0.44252044     1.21240260
Ti      1.87857701     0.55717898     1.26404601     0.49115930    -0.58445567    -1.30148725
Ti      3.29525098     4.98896902     8.05224901    -0.37874858     0.25373584     1.24169699
Ti      0.71107399     0.51910701     5.87019202    -0.16460003    -0.01674380    -1.30528631
Ti      4.46997499     4.94005198     3.46223498    -0.36663430     0.19146344     0.04890651
O       3.33455101     3.55863101     4.43222598     1.68396135    -0.35792520     2.12295681
O       0.89436501     1.91633699     0.04814899    -0.43398078     0.25915264     0.26066496
O       4.26413901     3.71601198     9.12615598     0.24164085    -0.24098882     0.06515204
O       3.45847501     0.83553399     0.23614402     0.64007406     0.01953448    -1.86490383
O       1.76631899     4.65889799     8.99440497    -1.64440569     0.71398790     1.47269553
O       4.26145900     0.88724699     4.67613102     0.73291765    -0.72473460    -0.03327497
O       0.97414700     4.60560598     4.44359302    -1.17100731     1.63901177     1.83159646
O       0.13972899     3.37585600     2.56244198    -0.51422211    -0.63876074    -0.89612080
O       5.00048498     2.25293700     6.68387602     1.20971708    -0.97964749    -0.02417712
O       2.75289298     2.09074502     2.15507001    -0.26579971    -0.27903576     0.39088882
O       2.37733202     3.26676399     7.20801000     0.93828357     0.14553195    -1.61035424
O       0.13334198     0.64057398     2.00419300    -0.23761887    -0.72118365     1.64392515
O       2.48804501     0.64056599     6.65731799    -0.73997199    -0.33979918    -0.13751602
O       2.74232801     4.80339799     2.42332398     0.00758836     0.23537558    -0.01553127
