# total energy = -19929.70996140 eV

CRYSTAL
PRIMVEC
        7.17359309     0.00000000     0.00000000
        0.00002823     5.08991483     0.00000000
        0.00000000     0.00000000    11.14509922
PRIMCOORD
24 1
Ti      2.60009931     3.01627880     4.13475232     0.55116939    -0.34329125     1.12598291
Ti      4.57352214     2.07363604     7.01034703    -0.55116939     0.34329125    -1.12598291
Ti      6.18677219     2.07363781     1.43775280     0.55091048     0.34257134    -1.12602430
Ti      0.98684925     3.01627727     9.70734661    -0.55091048    -0.34257134     1.12602430
Ti      2.60008520     0.47132150     1.43779748     0.55197337    -0.35287376    -1.12554454
Ti      4.57353625     4.61859351     9.70730193    -0.55197337     0.35287376     1.12554454
Ti      0.98683514     0.47131961     7.01030229    -0.55114676    -0.35275497    -1.12571191
Ti      6.18678631     4.61859541     4.13479700     0.55114676     0.35275497     1.12571191
O       2.27049751     1.79224556     5.68725884     0.87419468     1.17169740    -1.18407649
O       4.90312394     3.29766933     5.45784050    -0.87419468    -1.17169740     1.18407649
O       1.31636101     1.79226607     0.11474505    -0.87441837     1.17186812    -1.18447913
O       5.85726056     3.29764882    11.03035393     0.87441837    -1.17186812     1.18447913
O       4.90310989     0.75271185     0.11470886    -0.87414352    -1.17179638    -1.18381167
O       2.27051156     4.33720298    11.03039011     0.87414352     1.17179638     1.18381167
O       5.85724644     0.75269140     5.68729496     0.87471867    -1.17287959    -1.18514221
O       1.31637495     4.33722355     5.45780432    -0.87471867     1.17287959     1.18514221
O       0.26065054     3.09597473     3.01056937    -1.73073616     0.49240886     0.35062790
O       6.91297091     1.99394016     8.13452998     1.73073616    -0.49240886    -0.35062790
O       3.84745511     1.99389270     2.56201576    -1.72983551    -0.49224534    -0.35011805
O       3.32616634     3.09602219     8.58308340     1.72983551     0.49224534     0.35011805
O       0.26063643     0.55101725     2.56198012    -1.73077242     0.49189695    -0.35029777
O       6.91298502     4.53889758     8.58311898     1.73077242    -0.49189695     0.35029777
O       3.32615228     0.55106472     8.13456549     1.73088734     0.49157634    -0.35124907
O       3.84746917     4.53885018     3.01053379    -1.73088734    -0.49157634     0.35124907
