# total energy = -19957.55335020 eV

CRYSTAL
PRIMVEC
        7.60600008     0.00000000     0.00000000
        0.00000000     7.60600008     0.00000000
       -1.89786986    -1.89786986     4.85670466
PRIMCOORD
24 1
Ti      3.87217901     6.63801900     1.10762302    -0.51579922    -1.50098513    -0.48495369
Ti      3.87010099     2.63173499     1.19833098    -1.49738095     1.42351288     1.18373273
Ti     -0.07824298     6.83435699     1.21382900    -0.20107783    -2.94279347    -0.29683988
Ti     -0.05497802     2.95768198     1.23573000     1.01875167     1.85645364     2.53060125
Ti      5.55760924     2.97682423     3.66765481    -0.84716672     0.81361047     0.81957877
Ti      5.81252424    -0.76632878     3.80117782    -2.10708410    -1.23746933    -1.79636077
Ti      1.75810124     2.61286321     3.68292279     1.65782685     1.89848374     0.89154372
Ti      2.01783022    -0.97569479     3.55487380     1.49271569    -1.96273074    -1.47174962
O       3.94746601     4.50322400     0.65727302    -1.30026546     0.90390430     0.39375071
O       4.10854900     0.84925101     0.56359901    -1.09871455    -0.18036270     2.09304921
O      -0.09974298     4.87018402     0.70266103     0.34977969    -0.39135341     2.18776946
O      -0.08782601     1.02357300     0.84403099     0.36167644     0.34573226     0.14926751
O       5.25348621     4.81455924     4.23120879     1.68574056     1.52405616    -1.91162414
O       5.56114325     1.07361624     4.34646381    -0.03969528    -1.75972511    -4.97560454
O       2.46723321     4.52374120     4.16850383    -2.86235622     0.88303157    -1.46528072
O       2.03859921     0.76907023     4.12103880    -0.76374622     1.37910682    -2.26165759
O       3.74963823     2.78161625     3.26236282    -0.62852517    -1.44079558    -1.70702596
O       3.84811224    -0.87648776     3.17342379     0.53759756     0.47132864     0.12194644
O      -0.14062578     2.90515125     3.33116280     1.90009942    -0.15292310    -0.48812643
O       0.01970524    -0.90269775     3.14007980    -1.03514323     0.00065177     1.71038459
O       5.60647400     6.65828702     1.53979901     3.17549099     0.13173798     2.39615334
O       5.60561599     2.96450303     1.66764802     1.43191087    -0.56825463     0.20641929
O       1.96497197     6.49239498     1.53615102    -0.77874784     0.78194450     0.10264130
O       1.84359501     2.77465799     1.27758501     0.06411305    -0.27616152     2.07238448
