# total energy = -4987.59204914 eV

CRYSTAL
PRIMVEC
        3.62928690     0.00000000     0.00000000
        1.23249783     3.41360110     0.00000000
       -2.43092547    -1.70682380     4.70658199
PRIMCOORD
6 1
Ti      0.92426874     2.56033176     1.17664555     0.00104593    -0.00104593     0.00000000
Ti      1.50658989    -0.85355490     3.52993654    -0.00104593     0.00104593    -0.00000000
O       0.30816226     0.85339558     0.76666379     0.00021957     0.00059110    -0.86384933
O       2.12269619     0.85338116     3.93991839    -0.00021957    -0.00059110     0.86384933
O      -0.30813283    -0.85337495     3.11995479     0.00059110     0.00021957    -0.86384933
O       2.73899123     2.56015165     1.58662740    -0.00059110    -0.00021957     0.86384933
