# total energy = -19904.34598154 eV

CRYSTAL
PRIMVEC
        7.72998620     0.00000000     0.00000000
        0.00002434     3.12060255     0.00000000
        0.00000000     0.00000000    11.96409135
PRIMCOORD
24 1
Ti      2.80176274     1.84926614     4.43859258    -0.38398514     0.28139449     1.35306385
Ti      4.92824802     1.27133630     7.52549888     0.38398514    -0.28139449    -1.35306385
Ti      6.66662391     1.27133736     1.54340535    -0.38261757    -0.28134230    -1.35219302
Ti      1.06338685     1.84926524    10.42068622     0.38261757     0.28134230     1.35219302
Ti      2.80175068     0.28896492     1.54345332    -0.38420394     0.28159761    -1.35234343
Ti      4.92826008     2.83163763    10.42063826     0.38420394    -0.28159761     1.35234343
Ti      1.06337479     0.28896380     7.52545092     0.38285926     0.28126928    -1.35230692
Ti      6.66663597     2.83163874     4.43864054    -0.38285926    -0.28126928     1.35230692
O       2.44659811     1.09881718     6.10518423     4.64908717    -0.18968809     0.29886591
O       5.28341270     2.02178525     5.85890724    -4.64908717     0.18968809    -0.29886591
O       1.41845750     1.09882975     0.12317703    -4.64890231    -0.19030644     0.29978868
O       6.31155337     2.02177268    11.84091411     4.64890231     0.19030644    -0.29978868
O       5.28340064     0.46148398     0.12313822    -4.65172795     0.18954797     0.29814703
O       2.44661012     2.65911846    11.84095292     4.65172795    -0.18954797    -0.29814703
O       6.31154131     0.46147141     6.10522309     4.64747972     0.19078955     0.29940996
O       1.41846939     2.65913108     5.85886838    -4.64747972    -0.19078955    -0.29940996
O       0.28086310     1.89812736     3.23179954    -0.09934721    -0.04007323     1.23926061
O       7.44914766     1.22247508     8.73229193     0.09934721     0.04007323    -1.23926061
O       4.14586638     1.22244607     2.75028418    -0.10089398     0.04125722    -1.24012219
O       3.58414443     1.89815642     9.21380706     0.10089398    -0.04125722     1.24012219
O       0.28085104     0.33782608     2.75024598    -0.09900936    -0.04077823    -1.23984374
O       7.44915972     2.78277635     9.21384527     0.09900936     0.04077823     1.23984374
O       3.58413237     0.33785509     8.73233003     0.10103874    -0.03987603    -1.23869086
O       4.14587844     2.78274735     3.23176138    -0.10103874     0.03987603     1.23869086
