# total energy = -19517.24706503 eV

CRYSTAL
PRIMVEC
        5.17600016     0.00000000     0.00000000
        0.00000000     5.50899976     0.00000000
        0.00000000     0.00000000     9.26300011
PRIMCOORD
23 1
Ti      1.88269602     3.25166900     3.41897701     0.09467551     0.50339545     2.89930067
Ti      3.33760998     2.25264299     5.88194500     0.30724488    -0.00280996    -2.91576088
Ti      4.30441798     2.09042302     1.54946898    -0.00122513     0.15089450    -1.62046896
Ti      0.87101602     3.32808399     7.84899801    -0.30137043     0.61531767     0.91328858
Ti      1.87599003     0.33951102     1.27244702     1.32841262    -0.97159299    -0.68508817
Ti      3.41735201     5.12513898     7.89937198    -1.15919129     0.84994634     0.98713223
Ti      0.71891899     0.57022299     5.86366197     0.27291730    -0.39268036    -3.15340135
Ti      4.49272401     4.88392702     3.33830098     0.61702205     0.30709756     3.71908565
O       1.63052401     2.02204099     4.82285102     0.23035190    -0.34679669     0.03121860
O       3.53613701     3.57917802     4.52974900    -0.20463366    -0.24933359    -0.19144467
O       4.85339000     3.00763198     9.24478101     0.69291899     0.10185378     0.05294880
O       3.29703002     0.91899800     0.19030098     0.90680142     0.29843474    -0.79132825
O       1.80842102     4.69481500     8.93255500    -0.41206109    -0.57827988     1.28389807
O       4.33500601     0.67302800     4.76278300    -0.60782367     0.65732231    -0.39828537
O       0.99509501     4.68860701     4.42767701     0.48609860     0.25443955     0.28477498
O       0.05496601     3.22119701     2.73619500     0.84345019    -0.39205712    -1.34674279
O       5.05955598     2.04896902     6.70854701     0.18671692     0.41050145     1.11981432
O       2.67125702     1.81353102     2.40245799    -0.47582601     0.77701312    -0.70752106
O       2.80120099     3.51423098     7.06862000    -1.39288486    -0.35056156     1.06354647
O       0.18253699     0.62299699     2.07967098    -0.17604710    -0.00313778    -0.79027642
O       5.14672300     4.81150700     7.14952798    -0.01705516    -0.09550546     0.11057342
O       2.52652101     0.68273502     6.67829802    -0.16864977    -0.52844134     1.15850378
O       2.86638901     4.77679800     2.41072602    -1.04984197    -1.01501971    -1.02376661
