# total energy = -19073.10405452 eV

CRYSTAL
PRIMVEC
        5.93400000     0.00000000     0.00000000
        0.00000000     9.29699974     0.00000000
        0.00000000     0.00000000     4.64899994
PRIMCOORD
22 1
Ti      4.46968098     6.73606899     2.55007098     0.75304143     0.08424557    -0.11153732
Ti      4.26345802     2.45682900     2.22740399     1.07821102    -1.05728146     0.01311906
Ti      1.64330798     7.30916202     2.31876602    -0.84164502    -0.56497905     3.40435576
Ti      1.37731498     2.39058199     2.12611200     0.30802187    -0.73518485     0.49365199
Ti      2.99473201     4.49207000     4.51509799    -1.56719954     1.18094823     0.35494247
Ti      3.06135299     0.11710502     0.01991400    -1.75785951    -0.73626369    -0.96322148
Ti      5.80650400     4.62199000     4.51544698     0.98075821    -0.24330821     0.94656149
Ti      5.92355600     9.00689599     0.24869500     0.88992881     1.09448663    -0.05203323
O       4.36801799     5.39967402     0.87371800    -0.17213388     1.00700069     1.52370469
O       4.43337900     1.00366699     0.68723001     2.33585812     1.42593434     1.76862447
O       1.51994100     1.17863400     0.47952698    -0.83588755     0.06393436     2.76275010
O       4.61025703     8.16814698     3.87925602    -0.98829565     0.69773132    -0.53712987
O       4.38322400     3.66377901     3.80276498     1.07545686    -2.40797219    -2.15148681
O       1.47688698     8.74406799     3.67434800    -0.68908084    -2.70793519    -1.71077643
O       1.45915600     3.57237798     3.67830397     0.04219516     0.69283337     1.31798191
O       2.89279898     6.03206200     3.34223297    -0.93578625     0.36361583    -0.66741800
O       3.17721699     1.36273101     3.16871798     0.01432002     0.27364415    -1.32064686
O       0.15914498     6.12964001     3.60639000     0.25942852     0.21208292    -1.41660895
O       3.07018999     7.94610400     1.51099002     1.09551018     0.30560966    -0.82226841
O       2.84543201     3.31788198     1.45277200     0.09882527     0.71517241    -0.90379118
O       0.02461600     7.54997799     1.46084598    -0.00776499     0.78683731    -0.80885778
O       0.07721601     3.50796002     1.63618902    -1.13590300    -0.45115241    -1.11991562
