# total energy = -4987.39300921 eV

CRYSTAL
PRIMVEC
        3.87873380     0.00000000     0.00000000
        1.66131831     3.50493899     0.00000000
       -2.77006277    -1.75249273     5.08692007
PRIMCOORD
6 1
Ti      1.24589075     2.62883914     1.27172997     0.00033964    -0.00033964     0.00000000
Ti      1.52409884    -0.87639267     3.81518979    -0.00033964     0.00033964     0.00000000
O       0.41536987     0.87623015     0.82861765    -0.00023474    -0.00029156    -2.17769382
O       2.35461959     0.87621620     4.25830216     0.00023474     0.00029156     2.17769382
O      -0.41533492    -0.87620808     3.37207753    -0.00029156    -0.00023474    -2.17769382
O       3.18532431     2.62865438     1.71484228     0.00029156     0.00023474     2.17769382
