# total energy = -19911.31203459 eV

CRYSTAL
PRIMVEC
        6.84752076     0.00000000     0.00000000
        0.00003408     6.59375331     0.00000000
        0.00000000     0.00000000    11.70121113
PRIMCOORD
24 1
Ti      2.48191716     3.90745204     4.34106597     0.22266662    -0.94837798     0.78389571
Ti      4.36563768     2.68630113     7.36014555    -0.22266662     0.94837798    -0.78389571
Ti      5.90555821     2.68630340     1.50949305     0.22282242     0.94839520    -0.78409959
Ti      0.94199670     3.90745011    10.19171868    -0.22282242    -0.94839520     0.78409959
Ti      2.48190019     0.61057552     1.50953999     0.22266662    -0.94837798    -0.78389571
Ti      4.36565472     5.98317785    10.19167174    -0.22266662     0.94837798     0.78389571
Ti      0.94197966     0.61057312     7.36009868    -0.22282242    -0.94839520    -0.78409959
Ti      5.90557518     5.98318032     4.34111291     0.22282242     0.94839520     0.78409959
O       2.16729558     2.32177255     5.97103862     1.16064551     1.38192192    -0.46294067
O       4.68025933     4.27198062     5.73017290    -1.16064551    -1.38192192     0.46294067
O       1.25652893     2.32179922     0.12047053    -1.16010789     1.38191910    -0.46390663
O       5.59102604     4.27195402    11.58074073     1.16010789    -1.38191910     0.46390663
O       4.68024229     0.97510390     0.12043259    -1.16064551    -1.38192192    -0.46294067
O       2.16731262     5.61864927    11.58077867     1.16064551     1.38192192     0.46294067
O       5.59100900     0.97507730     5.97107663     1.16010789    -1.38191910    -0.46390663
O       1.25654577     5.61867593     5.73013496    -1.16010789     1.38191910     0.46390663
O       0.24880711     4.01069456     3.16078912    -0.17872028    -0.11715416     0.11289667
O       6.59874780     2.58305868     8.54042240     0.17872028     0.11715416    -0.11289667
O       3.67257356     2.58299731     2.68985385    -0.17818394     0.11743210    -0.11314632
O       3.17498129     4.01075593     9.01135755     0.17818394    -0.11743210     0.11314632
O       0.24879007     0.71381784     2.68981644    -0.17872028    -0.11715416    -0.11289667
O       6.59876477     5.87993540     9.01139489     0.17872028     0.11715416     0.11289667
O       3.17496431     0.71387921     8.54045974     0.17818394    -0.11743210    -0.11314632
O       3.67259060     5.87987396     3.16075178    -0.17818394     0.11743210     0.11314632
