# total energy = -19518.28595219 eV

CRYSTAL
PRIMVEC
        5.93400000     0.00000000     0.00000000
        0.00000000     9.29699974     0.00000000
        0.00000000     0.00000000     4.64899994
PRIMCOORD
23 1
Ti      4.55918602     7.03438298     2.18042602    -0.87272195     0.54014707     0.65487564
Ti      4.48065803     2.29438000     2.34639902    -0.48080958     0.00954342    -0.27553160
Ti      1.38668401     7.03900799     2.23365601     0.79182653    -0.05154884     0.07546936
Ti      1.47001900     2.34150900     2.40587198     0.16538062     0.32132862    -0.69820235
Ti      2.97126099     4.54968401     0.14900298    -0.62705578    -0.92940194     0.93812004
Ti      3.00106198     0.03727800     4.63558800    -0.11424084    -0.22314124     0.34076720
Ti      5.90243199     4.64484998     0.05270097     0.51067270     0.18658348    -0.54955628
Ti      0.04746402     0.00760698     4.51455199     0.00418267    -0.12321014     0.55246471
O       4.39618700     5.52711599     1.05015299    -0.16861275    -0.17941756    -0.62628137
O       4.49878600     0.90900697     0.94413402    -0.21280103    -0.27566941    -0.42954048
O       1.46762902     5.57922698     0.98767801     0.28513442    -0.49467452    -0.36613988
O       1.47168601     0.85096898     0.89163202     0.02180759     0.07980039    -0.08302069
O       4.45863399     8.37978502     3.66957101    -0.17053542     0.21005484    -0.07082723
O       4.32334400     3.66030898     3.84735901     0.74711349     0.55232022    -0.25096084
O       1.54480698     8.37587302     3.56126198    -0.19365916     0.36419330     1.14452443
O       1.50258203     3.77472398     3.79822702    -0.25978770     0.17501454    -0.16327668
O       2.85586198     1.43281202     3.17692800     1.30769981    -0.92509226     0.99791776
O       5.84010501     6.06431498     3.32772002     0.14368024     0.16592158    -0.49228468
O       0.04428901     1.43639899     3.30511601    -0.65207648     0.25518028    -0.41276197
O       2.95947499     7.88101599     1.34489498     0.15530420    -0.87215143     0.67172486
O       2.94611898     3.27965898     1.51385001     0.17448618    -0.03898771    -0.31280335
O       0.02155302     7.73693198     1.25809499    -0.23197864     1.08996380    -0.43196426
O       5.91341099     3.25050698     1.49198700    -0.32300910     0.16324403    -0.21271207
