# total energy = -19076.59127778 eV

CRYSTAL
PRIMVEC
        7.60600008     0.00000000     0.00000000
        0.00000000     7.60600008     0.00000000
       -1.89786986    -1.89786986     4.85670466
PRIMCOORD
22 1
Ti      3.78073602     6.53882600     1.16216902    -0.29424718    -0.55717934     0.31887887
Ti      3.78100198     2.78463499     1.21387303     0.08894632     0.91789085     0.09563710
Ti     -0.00779002     6.63807298     1.20019099     0.16881741     0.11172450    -1.08714407
Ti     -0.02621698     2.92423798     1.18725901    -0.27015311    -0.11864848     0.33070467
Ti      5.71177223     2.87946424     3.55536880     0.05739424     1.01243189     0.63803491
Ti      5.94174224    -0.85077975     3.70362881    -0.83602176    -1.48494838    -0.38007784
Ti      1.89928621     2.74006022     3.54936681    -0.27758900     1.02738184     0.81983897
Ti      1.92568421    -0.99451980     3.77099784    -0.86496802    -0.68635804    -1.22137139
O       3.53637901     4.71062899     0.73186500     0.74046153    -0.33138935    -0.17632092
O       3.74716300     0.91103901     1.02432099     0.30867159     0.03648808    -1.08892173
O       0.09025398     4.77399002     0.70978799    -0.41116788     0.06023351     0.00971209
O      -0.21829800     1.05130501     0.78232702     0.59228289    -0.79747114     0.62400774
O       5.84612324     4.81313924     4.06309182    -0.33588416     0.32917615     0.11603701
O       5.59749725     0.94430124     4.01679882     0.42179914     1.24783602    -0.59950949
O       1.82285724     4.71310522     4.10316282     0.44446111     0.70360475    -0.21245162
O       1.93465022     0.87433121     3.92367082     0.09373346     0.34844606     0.86211898
O       3.79717724     2.97743823     3.17785380    -0.23623047    -0.41211765     0.51507443
O      -0.01362780     3.02065122     3.15417179     0.03575352    -0.98033860    -0.12368991
O       5.66199300     6.51613303     1.78151802     0.20337459     0.23854215     0.34358641
O       5.63698699     3.13908400     1.61426197     0.59763207    -0.66652326    -0.38744379
O       1.78756398     6.54737099     1.77720999     0.63927573     0.51257737     1.00373462
O       1.91241102     2.88678297     1.63114098    -0.86634124    -0.51135893    -0.40043507
