# total energy = -19516.96299711 eV

CRYSTAL
PRIMVEC
        5.93400000     0.00000000     0.00000000
        0.00000000     9.29699974     0.00000000
        0.00000000     0.00000000     4.64899994
PRIMCOORD
23 1
Ti      4.54538799     7.03312697     2.18095800     1.66858821    -0.55059680    -0.09396177
Ti      4.51682501     2.32372600     2.34750500    -0.35159026     0.23330096     0.22509168
Ti      1.59834401     7.13695901     2.31666598    -1.23053223     0.05472595    -1.03430659
Ti      1.45697801     2.21477502     2.29370799     0.75052046     0.28220773    -0.15826843
Ti      2.85125999     4.51469899     0.22764602     1.10139313    -1.06108798    -0.06426500
Ti      2.97198300     9.22165702     4.34719598     1.45846729     0.22230640     2.05748982
Ti      5.91441902     4.75137198     0.09425398    -0.90296148    -0.16810881    -1.64016002
Ti      5.90633298     0.08671897     4.62373200    -1.06515778    -0.01874258     1.88454964
O       4.31019199     5.48620799     1.01454497     0.44858336     0.55632728    -0.07380020
O       4.29864100     0.83524797     0.85525500     1.16681641     0.16867549     0.54598321
O       1.33686202     5.55460600     1.19047498     1.41362929    -0.85228039    -0.88747289
O       1.42465200     0.87887901     1.00325799     0.40901304    -0.56028061    -0.40486379
O       4.50489598     8.38234899     3.50805802    -0.18329658     0.96791863     1.32601249
O       4.41170999     3.73122498     3.83666101    -0.28651587    -0.17074265    -0.09813879
O       1.39147798     8.46220898     3.73403200     0.19363628    -1.73794065    -1.30050766
O       1.53952902     3.93420700     3.68586200    -0.42615665     0.08285614     0.97746719
O       2.94142698     1.41083402     3.33695099     0.23053676     0.49201805    -0.99139821
O       5.71464698     6.00830898     3.30693098     0.59316015     0.35870271     0.48636857
O       0.09963598     1.42299901     3.36725999    -0.73987172     0.94949667    -0.90916298
O       3.06908300     7.90136502     1.34571098    -1.70238717    -1.02846684     0.51135764
O       3.02913499     3.26312500     1.64796099    -0.65835409     0.01352915    -1.25339474
O       0.14830801     7.72989402     1.29328999    -0.87421936     0.88349025     0.20165478
O       0.06405299     3.02549298     1.30124998    -1.01330196     0.88269244     0.69372606
