# total energy = -4986.82977331 eV

CRYSTAL
PRIMVEC
        3.75598507     0.00000000     0.00000000
        0.00000000     3.92337699     0.00000000
        0.00000000    -0.00006857     5.10856334
PRIMCOORD
6 1
Ti      1.87799237     1.96165416     2.55428161     0.00000000     0.00000000     0.00000000
Ti      0.00000000     0.00000000     0.00000000     0.00000000     0.00000000     0.00000000
O       1.87799237     0.76459502     0.99558373     0.00000000     0.26776301     0.67684907
O       1.87799237     3.15871329     4.11297944     0.00000000    -0.26776301    -0.67684907
O       0.00000000     1.19703170     3.54986646     0.00000000    -0.26792807     0.67769137
O       0.00000000     2.72627661     1.55869677     0.00000000     0.26792807    -0.67769137
