# total energy = -19959.24475902 eV

CRYSTAL
PRIMVEC
        7.60600008     0.00000000     0.00000000
        0.00000000     7.60600008     0.00000000
       -1.89786986    -1.89786986     4.85670466
PRIMCOORD
24 1
Ti      3.94489199     6.78997802     1.06640302    -2.70951899     0.83088520     1.49195413
Ti      3.85976901     2.97438398     1.22968998     0.63206687    -1.21011303     0.27204004
Ti     -0.13153600     6.60306600     1.22638002     3.86322303    -0.31048730    -0.55921643
Ti      0.07376699     2.69877799     1.27254201    -1.52100015     0.36729816    -0.03095532
Ti      5.59860021     2.71433924     3.71646279     1.19885288    -0.38599009     0.19668715
Ti      5.72999323    -1.02962880     3.70645081    -0.68700056     0.82324851    -0.26197545
Ti      1.92621122     2.92256324     3.61344182    -0.89954988    -0.06375181    -0.19374092
Ti      1.89974924    -0.73491078     3.59744384     0.82231134    -1.29116889    -1.93592596
O       3.83318500     4.91424999     0.58849199     0.29446418    -1.56722140     2.88067688
O       3.88675001     1.03543499     0.57907898     0.28734120    -0.15467454     2.41196974
O      -0.09738899     4.54303501     0.79874702    -0.23190022     1.45250002     1.23725541
O      -0.27024500     0.89267598     0.76243101     0.51603808     0.13701594     0.39479869
O       5.65341123     4.71557822     4.11558081    -0.64043941    -0.94542712    -0.22834233
O       5.68230722     0.85375124     4.05127979     0.13155800    -0.75490316     0.91240669
O       2.10102821     4.86424221     4.04770282     0.00077724    -0.93076617    -2.38056293
O       1.85734621     0.99193720     4.24615281    -0.11041015     1.66947190    -1.95683855
O       3.77557024     2.45973122     3.15869181    -1.35208452     1.34050478     0.53568311
O       3.70985622    -0.70843779     3.05404881     1.09893129    -0.68918240     0.32734629
O      -0.09962577     2.58150221     3.42864180     2.16744360     1.18633392    -1.63388524
O      -0.01264776    -0.99902976     3.35062980    -0.05593360    -0.12765943    -1.12785647
O       5.75824801     6.76140298     1.70224701    -1.47383401    -0.68910193    -0.02139416
O       5.67615299     2.68799802     1.81607600    -0.26240123     1.16450910    -1.78132984
O       1.89570500     6.86256198     1.36618500    -1.02116131    -0.56460367     1.10879533
O       1.89896399     2.68091001     1.59672202    -0.04777343     0.71328367     0.34241013
