# total energy = -19917.80552841 eV

CRYSTAL
PRIMVEC
        6.40004090     0.00000000     0.00000000
        0.67949420     6.77760241     0.00000000
        0.00000000     0.00000000    11.46904424
PRIMCOORD
24 1
Ti      2.72237470     4.01640095     4.25493371    -0.09127960    -1.35171788     0.70038496
Ti      4.35716059     2.76120152     7.21411092     0.09127960     1.35171788    -0.70038496
Ti      5.79644883     2.76120382     1.47954279     0.15694688     0.38093119    -0.51205158
Ti      1.28308648     4.01639898     9.98950204    -0.15694688    -0.38093119     0.51205158
Ti      2.38262774     0.62759980     1.47958880    -0.09127960    -1.35171788    -0.70038496
Ti      4.69690757     6.15000293     9.98945603     0.09127960     1.35171788     0.70038496
Ti      0.94333942     0.62759731     7.21406497    -0.15694688    -0.38093119    -0.51205158
Ti      6.13619582     6.15000536     4.25497972     0.15694688     0.38093119     0.51205158
O       2.26491489     2.38650904     5.85256563     1.61124719     1.64845852    -0.27673822
O       4.81462041     4.39109349     5.61647900    -1.61124719    -1.64845852     0.27673822
O       1.41366876     2.38653645     0.11808024    -1.18309587     0.89689393     0.34616934
O       5.66586661     4.39106614    11.35096412     1.18309587    -0.89689393    -0.34616934
O       4.47487343     1.00229208     0.11804306    -1.61124719    -1.64845852    -0.27673822
O       2.60466187     5.77531045    11.35100131     1.61124719     1.64845852     0.27673822
O       5.32611964     1.00226473     5.85260289     1.18309587    -0.89689393     0.34616934
O       1.75341560     5.77533780     5.61644181    -1.18309587     0.89689393    -0.34616934
O       0.64583515     4.12252214     3.09807505     0.47659246     0.43795365     0.86879845
O       6.43370008     2.65508040     8.37096958    -0.47659246    -0.43795365    -0.86879845
O       3.69874254     2.65501727     2.63648373     0.54895464     0.92310248     0.16417348
O       3.38079276     4.12258520     8.83256077    -0.54895464    -0.92310248    -0.16417348
O       0.30608818     0.73372073     2.63644707     0.47659246     0.43795365    -0.86879845
O       6.77344706     6.04388174     8.83259737    -0.47659246    -0.43795365     0.86879845
O       3.04104579     0.73378385     8.37100618    -0.54895464    -0.92310248     0.16417348
O       4.03848952     6.04381868     3.09803845     0.54895464     0.92310248    -0.16417348
