# total energy = -19960.62362617 eV

CRYSTAL
PRIMVEC
        5.93400000     0.00000000     0.00000000
        0.00000000     9.29699974     0.00000000
        0.00000000     0.00000000     4.64899994
PRIMCOORD
24 1
Ti      4.43619602     6.79092001     2.36238203     1.76775698     1.29211146    -0.29892813
Ti      4.44032900     2.41186502     2.29598399    -0.69542478    -0.92104920     0.29807170
Ti      1.55499698     6.98873599     2.27274702    -1.86452331     0.68116518    -0.52719873
Ti      1.43499302     2.38507500     2.34163002     0.59214867    -0.80272647     0.43354575
Ti      2.95753498     4.64155802     4.64304898    -0.43497785     0.12738073     0.38270319
Ti      2.94584799     9.29323301     0.04353599     0.34684092    -0.31551124    -0.34925467
Ti      0.00513900     4.63622899     4.63517101     0.41671324     0.96162379    -0.28879593
Ti      5.90408799     0.01330002     4.64829598    -0.31904420    -0.89920895     0.07090154
O       4.50541299     5.53538703     0.89511999    -0.67039354    -0.09890035     0.03753118
O       4.47732802     0.86322198     0.97813901    -0.56253881     0.70962834    -0.03168989
O       1.52660498     5.61564199     0.92438698     0.09542370    -0.65294192    -0.93618400
O       1.48267401     0.83915103     0.95522002     0.32079306     0.65440848     0.54489795
O       4.43625698     8.41869902     3.71703901    -0.17259539    -0.13431242     0.07632400
O       4.52548003     3.75949500     3.71452102    -0.57924122     0.31756658    -0.05038438
O       1.48198899     8.49145999     3.70365903     0.60361323    -0.53196556    -0.15267268
O       1.45756402     3.72308999     3.84505900     0.46647233    -0.24154829    -0.80094650
O       2.83439702     5.98154298     3.21705398     1.44973840     0.35637431     0.13374318
O       2.96228202     1.69051700     3.32359202     0.09044399    -1.28982215    -0.35838775
O       0.15368800     5.95386098     3.15549199    -1.22434024     0.59802725     0.34195556
O       0.02473200     1.40879398     3.23362998    -0.32658036     1.02887282    -0.45104931
O       3.10563100     7.72340599     1.30314301    -0.75480212     0.71870742     0.60198469
O       2.90056100     3.34662001     1.42394899     0.61828909    -0.69849365     0.15918528
O       5.84875500     7.82494998     1.43302898     0.55072870    -0.00142593    -0.01026153
O       5.90571701     3.28331099     1.34911501     0.28549926    -0.85796047     1.17490948
