# total energy = -19914.48449643 eV

CRYSTAL
PRIMVEC
        7.79597753     0.00000000     0.00000000
        0.00002942     4.97836637     0.00000000
        0.00000000     0.00000000    11.90663277
PRIMCOORD
24 1
Ti      2.82568410     2.95017528     4.41727585     0.53832801    -0.44600712     1.99680379
Ti      4.97032234     2.02819103     7.48935704    -0.53832801     0.44600712    -1.99680379
Ti      6.72353873     2.02819270     1.53599302     0.53857869     0.44619635    -1.99756561
Ti      1.07246777     2.95017380    10.37063993    -0.53857869    -0.44619635     1.99756561
Ti      2.82566964     0.46099216     1.53604078     0.53867408    -0.44684350    -1.99707761
Ti      4.97033679     4.51737428    10.37059224    -0.53867408     0.44684350     1.99707761
Ti      1.07245325     0.46099036     7.48930928    -0.53814546    -0.44703736    -1.99755224
Ti      6.72355319     4.51737608     4.41732355     0.53814546     0.44703736     1.99755224
O       2.46748633     1.75296738     6.07586359     0.83157400     1.36810533    -1.77190931
O       5.32852017     3.22539887     5.83076931    -0.83157400    -1.36810533     1.77190931
O       1.43056846     1.75298748     0.12258546    -0.83193396     1.36808861    -1.77268810
O       6.36543810     3.22537883    11.78404705     0.83193396    -1.36808861     1.77268810
O       5.32850572     0.73621562     0.12254682    -0.83083738    -1.36735636    -1.77109581
O       2.46750078     4.24215063    11.78408569     0.83083738     1.36735636     1.77109581
O       6.36542358     0.73619558     6.07590216     0.83130789    -1.36870928    -1.77361087
O       1.43058279     4.24217073     5.83073066    -0.83130789     1.36870928     1.77361087
O       0.28326368     3.02812464     3.21627856    -2.15450734     0.71663151     0.34749861
O       7.51274282     1.95024160     8.69035427     2.15450734    -0.71663151    -0.34749861
O       4.18126142     1.95019532     2.73707570    -2.15328041    -0.71642865    -0.34528823
O       3.61474502     3.02817099     9.16955693     2.15328041     0.71642865     0.34528823
O       0.28324916     0.53894139     2.73703770    -2.15477962     0.71681354    -0.34536613
O       7.51275727     4.43942486     9.16959494     2.15477962    -0.71681354     0.34536613
O       3.61473056     0.53898774     8.69039221     2.15368073     0.71710125    -0.34856484
O       4.18127587     4.43937851     3.21624055    -2.15368073    -0.71710125     0.34856484
