# total energy = -4990.07709275 eV

CRYSTAL
PRIMVEC
        3.84122629     0.00000000     0.00000000
        0.76063088     3.76516402     0.00000000
       -2.30096358    -1.88261064     4.92720308
PRIMCOORD
6 1
Ti      0.57034075     2.82401700     1.23180090     0.00007430    -0.00007430     0.00000000
Ti      1.73055284    -0.94146362     3.69540234    -0.00007430     0.00007430     0.00000000
O       0.19019797     0.94128550     0.80260118    -0.00036407    -0.00034401    -0.49100015
O       2.11069551     0.94126778     4.12460212     0.00036407     0.00034401     0.49100015
O      -0.19017276    -0.94126487     3.26620261    -0.00034401    -0.00036407    -0.49100015
O       2.49106612     2.82381806     1.66100063     0.00034401     0.00036407     0.49100015
