# total energy = -19869.98161663 eV

CRYSTAL
PRIMVEC
        9.93744481     0.00000000     0.00000000
        0.00003090     3.52548213     0.00000000
        0.00000000     0.00000000    15.80963653
PRIMCOORD
24 1
Ti      3.60186386     2.08919733     5.86526253     0.29385483     0.02660013     1.92110585
Ti      6.33561144     1.43628447     9.94437447    -0.29385483    -0.02660013    -1.92110585
Ti      8.57041675     1.43628560     2.03949281     0.29369799    -0.02703182    -1.92176071
Ti      1.36705861     2.08919633    13.77014433    -0.29369799     0.02703182     1.92176071
Ti      3.60184881     0.32645633     2.03955621     0.29370288     0.02700431    -1.92101972
Ti      6.33562655     3.19902560    13.77008093    -0.29370288    -0.02700431     1.92101972
Ti      1.36704351     0.32645513     9.94431107    -0.29368437     0.02661350    -1.92187796
Ti      8.57043186     3.19902681     5.86532593     0.29368437    -0.02661350     1.92187796
O       3.14527475     1.24138208     8.06753670     0.25135679     0.54652597    -2.11713120
O       6.79220062     2.28409978     7.74210031    -0.25135679    -0.54652597     2.11713120
O       1.82352721     1.24139640     0.16276910    -0.25413333     0.54682011    -2.11851729
O       8.11394822     2.28408547    15.64686743     0.25413333    -0.54682011     2.11851729
O       6.79218551     0.52135864     0.16271775    -0.25378520    -0.54648972    -2.11736672
O       3.14528986     3.00412315    15.64691877     0.25378520     0.54648972     2.11736672
O       8.11393312     0.52134440     8.06758797     0.25331135    -0.54692347    -2.11927088
O       1.82354211     3.00413746     7.74204903    -0.25331135     0.54692347     2.11927088
O       0.36106890     2.14439808     4.27057732    -1.56784592     0.53012619     0.27724319
O       9.57640646     1.38108372    11.53905962     1.56784592    -0.53012619    -0.27724319
O       5.32980445     1.38105104     3.63429141    -1.56801381    -0.53028354    -0.27768053
O       4.60767092     2.14443082    12.17534532     1.56801381     0.53028354     0.27768053
O       0.36105379     0.38165701     3.63424095    -1.56762223     0.53015087    -0.27716785
O       9.57642157     3.14382485    12.17539578     1.56762223    -0.53015087     0.27716785
O       4.60765588     0.38168969    11.53911001     1.56763380     0.53021772    -0.27646851
O       5.32981949     3.14379211     4.27052686    -1.56763380    -0.53021772     0.27646851
