# total energy = -19937.92288456 eV

CRYSTAL
PRIMVEC
        5.65515278     0.00000000     0.00000000
        2.83239713     5.31068711     0.00000000
        0.00000000     0.00000000    10.47388442
PRIMCOORD
24 1
Ti      3.72819683     3.14710827     3.88573644     1.91528128    -3.77770065     0.85762674
Ti      4.75935323     2.16357898     6.58814810    -1.91528128     3.77770065    -0.85762674
Ti      6.03112637     2.16358087     1.35116399    -4.28953137    -0.28003643     1.12149942
Ti      2.45642386     3.14710662     9.12272061     4.28953137     0.28003643    -1.12149942
Ti      2.31199848     0.49176489     1.35120600     1.91528128    -3.77770065    -0.85762674
Ti      6.17555169     4.81892256     9.12267865    -1.91528128     3.77770065     0.85762674
Ti      1.04022524     0.49176285     6.58810609     4.28953137     0.28003643     1.12149942
Ti      7.44732491     4.81892455     3.88577839    -4.28953137    -0.28003643    -1.12149942
O       2.78722679     1.86998325     5.34474307     1.21758389     1.86140765    -1.26609523
O       5.70032333     3.44070404     5.12914146    -1.21758389    -1.86140765     1.26609523
O       2.03506454     1.87000463     0.10783452     1.15966771    -1.10907173     0.87040873
O       6.45248565     3.44068270    10.36604968    -1.15966771     1.10907173    -0.87040873
O       4.28412488     0.78536045     0.10780052    -1.21758389    -1.86140765    -1.26609523
O       4.20342524     4.52532678    10.36608368     1.21758389     1.86140765     1.26609523
O       5.03628719     0.78533912     5.34477701    -1.15966771     1.10907173     0.87040873
O       3.45126288     4.52534819     5.12910747     1.15966771    -1.10907173    -0.87040873
O       1.92828925     3.23026091     2.82925748     0.64733922     1.63870349     1.60128647
O       6.55926087     2.08042638     7.64462700    -0.64733922    -1.63870349    -1.60128647
O       4.14259877     2.08037678     2.40771805     1.39955147     0.90321088     0.25414079
O       4.34495135     3.23031051     8.06616626    -1.39955147    -0.90321088    -0.25414079
O       0.51209080     0.57491733     2.40768462     0.64733922     1.63870349    -1.60128647
O       7.97545932     4.73576991     8.06619970    -0.64733922    -1.63870349     1.60128647
O       2.92875290     0.57496693     7.64466037    -1.39955147    -0.90321088     0.25414079
O       5.55879722     4.73572031     2.82922405     1.39955147     0.90321088    -0.25414079
