# total energy = -19938.83011754 eV

CRYSTAL
PRIMVEC
        6.72589032     0.00000000     0.00000000
        0.00002842     5.29097749     0.00000000
        0.00000000     0.00000000    10.70865351
PRIMCOORD
24 1
Ti      2.43782860     3.13542840     3.97283408     0.42707968    -0.38970508     0.63186118
Ti      4.28809019     2.15554926     6.73581950    -0.42707968     0.38970508    -0.63186118
Ti      5.80065760     2.15555111     1.38144993     0.42742266     0.38962537    -0.63206764
Ti      0.92526119     3.13542680     9.32720377    -0.42742266    -0.38962537     0.63206764
Ti      2.43781451     0.48993978     1.38149286     0.42796979    -0.41742107    -0.63218051
Ti      4.28810428     4.80103807     9.32716083    -0.42796979     0.41742107     0.63218051
Ti      0.92524711     0.48993776     6.73577656    -0.42814746    -0.41737170    -0.63205118
Ti      5.80067169     4.80104009     3.97287701     0.42814746     0.41737170     0.63205118
O       2.12879679     1.86304315     5.46454392     0.88328251     1.05462140    -0.77079979
O       4.59712206     3.42793451     5.24410965    -0.88328251    -1.05462140     0.77079979
O       1.23420776     1.86306450     0.11025161    -0.88320589     1.05538682    -0.77183260
O       5.49171115     3.42791323    10.59840167     0.88320589    -1.05538682     0.77183260
O       4.59710797     0.78244571     0.11021687    -0.88284311    -1.05497338    -0.77051259
O       2.12881088     4.50853195    10.59843641     0.88284311     1.05497338     0.77051259
O       5.49169706     0.78242443     5.46457867     0.88246027    -1.05506620    -0.77107849
O       1.23422173     4.50855330     5.24407491    -0.88246027     1.05506620     0.77107849
O       0.24438445     3.21827243     2.89267447    -1.15907482     0.20696540     0.17652224
O       6.48153441     2.07270524     7.81597910     1.15907482    -0.20696540    -0.17652224
O       3.60733686     2.07265589     2.46168637    -1.15911904    -0.20658384    -0.17674207
O       3.11858200     3.21832184     8.24696703     1.15911904     0.20658384     0.17674207
O       0.24437036     0.57278369     2.46165216    -1.15912753     0.20622826    -0.17654255
O       6.48154850     4.71819404     8.24700123     1.15912753    -0.20622826     0.17654255
O       3.11856791     0.57283303     7.81601324     1.15946845     0.20625114    -0.17664308
O       3.60735095     4.71814463     2.89264027    -1.15946845    -0.20625114     0.17664308
