# total energy = -19074.76709395 eV

CRYSTAL
PRIMVEC
        7.60600008     0.00000000     0.00000000
        0.00000000     7.60600008     0.00000000
       -1.89786986    -1.89786986     4.85670466
PRIMCOORD
22 1
Ti      3.72527401     6.79550702     1.05739198    -0.69524635    -0.73190001     1.41139989
Ti      3.84959299     3.00193999     1.14640298     0.61148209     0.96826058     0.25692735
Ti     -0.08010003     6.59310101     1.37684602     0.95820474    -0.12135329    -0.12562492
Ti      0.09727199     2.82721000     1.27495998    -0.71734396     0.55931465    -0.26856314
Ti      5.68410123     2.92848521     3.58170182    -0.35399321    -0.58260294    -0.11178749
Ti      5.62784223    -1.07769778     3.78479280     1.15608745     0.36721023    -0.20227467
Ti      1.90360525     2.89482520     3.55499382     0.53551034     0.04540956     0.03745096
Ti      1.73117522    -0.82728375     3.80941282     0.19753587     0.93755132    -1.73290438
O       3.93485202     4.91727000     0.57055298     0.85125323     0.13127698     1.34826900
O       3.51641299     1.18392699     0.84889403     0.54215767    -2.15605746    -0.37688684
O      -0.11536397     4.59432900     0.76104600     0.03933764     1.51217792    -0.61001348
O      -0.11122300     0.95120399     0.89788700     0.54154112    -0.52206989    -0.26452753
O       5.43013923     4.71674125     4.10295480    -0.05344734     0.23437105     0.45555980
O      -0.02144179    -0.94399977     3.33269482    -2.80509027    -0.06170701    -0.45431153
O       1.75920421     4.91135825     3.99837779     0.66866036    -0.33957600     0.42237790
O       1.44320024     1.13237322     4.07948981     2.05862316    -1.14536800    -0.69115958
O       3.87819221     2.59002921     3.06271584    -0.62358531     0.11725340     1.56966395
O      -0.00951175     2.72800625     3.13327379     0.14833985     0.79858699     1.00692510
O       5.41959802    -0.58299500     1.97944598    -0.18402601    -0.73835862    -1.06396196
O       5.77355701     2.92289599     1.62935199    -0.84016483     0.03184184    -0.60282750
O       1.96166700     6.42684400     1.76011301     0.12990092     1.27284000    -0.67599932
O       2.07240998     3.30091900     1.60541900    -2.16573741    -0.57710154     0.67226916
