# total energy = -19517.55647385 eV

CRYSTAL
PRIMVEC
        5.17600016     0.00000000     0.00000000
        0.00000000     5.50899976     0.00000000
        0.00000000     0.00000000     9.26300011
PRIMCOORD
23 1
Ti      1.94566198     3.15925401     3.47442600    -0.90130543     0.42464021     1.25675955
Ti      3.37362298     2.28842400     5.91841198     1.09711481     0.84577498    -2.20315546
Ti      4.31891198     2.09058299     1.48253901     0.57788316     0.90846133    -1.23833347
Ti      0.76026700     3.49833598     7.78206799    -2.49421293     0.47591626     1.76247104
Ti      2.01108803     0.12698000     1.43193099     0.23552291     0.42947800    -1.56425254
Ti      3.16452901     5.16980000     7.95963199     0.60134577    -0.64882147     2.41794884
Ti      0.84150401     0.58280301     5.89341100    -1.86610300    -0.88584564    -2.31149099
Ti      4.63241098     4.95266201     3.27152500    -0.72316366    -0.01187773     2.51011418
O       1.80002002     1.82143402     4.84125501    -0.26748276     0.03944151    -0.60725571
O       3.49575301     3.49895702     4.46014902     0.93439246     0.53007631     0.33557125
O       4.72516300     2.89520298     9.16844201     0.28537122     0.07913370    -0.00058390
O       3.43817397     0.68793000     0.30774901     0.25259967    -0.25983938    -0.65485482
O       1.47728402     4.79377501     9.06591402     0.82058845    -0.28613509     0.31131957
O       4.42714302     0.71801801     4.77537499    -0.91431573     0.74809899    -0.15188232
O       0.92824199     4.63485303     4.39097100     1.47196302    -0.25581432     0.85526339
O       0.22022399     3.46299900     2.40072002     0.83658277    -1.42834655    -0.15889501
O       5.12446798     2.15230802     6.67193598     0.17867528    -0.14039308     0.34706357
O       2.60848601     1.86114301     2.26838300     0.00186559    -0.83948118    -0.43623075
O       2.42750300     3.67145801     7.01348402     1.15054852    -1.41640454    -0.73352649
O       0.27539300     0.62678098     1.99736799    -0.56276353     0.75218602     0.22929672
O       4.86453400     4.87916802     7.16849099     0.37292528     0.23608958    -0.29783284
O       2.53172700     0.92046297     6.95655598    -1.18146142     0.60874875    -0.11211917
O       2.98002300     4.37032901     2.23676699     0.09342955     0.09491385     0.44460561
