# total energy = -19517.15948012 eV

CRYSTAL
PRIMVEC
        5.17600016     0.00000000     0.00000000
        0.00000000     5.50899976     0.00000000
        0.00000000     0.00000000     9.26300011
PRIMCOORD
23 1
Ti      1.83683202     3.21496299     3.51271600     0.32635822    -0.23319709     0.84805375
Ti      3.47281302     2.20626802     5.75938702    -0.01161291    -0.27061282    -0.05362320
Ti      4.38121398     2.11653802     1.47287798    -0.02161656     1.03291100    -1.81595387
Ti      0.84651199     3.46441598     7.76963000    -2.11660721    -0.04305879     0.62416715
Ti      1.89134701     0.30216201     1.34097198     2.54589392    -1.12815163    -1.23976326
Ti      3.21497802     4.99438198     7.99962800    -0.24759527     1.95798860     0.74251687
Ti      0.79250702     0.46733400     5.90684400     0.20903719     1.87404437    -0.68207176
Ti      4.54775601     4.98309600     3.32351301    -1.27584331    -0.60089634     2.12862224
O       1.68567100     1.82701102     4.78998001    -0.18756642     1.14515949    -1.00565626
O       3.54113901     3.52757900     4.46550202    -0.15797326     1.08338074    -0.68390392
O       4.98859701     2.84744198     9.12066698    -1.14208393    -0.73495037     0.93437137
O       3.45791102     0.83645799     0.34404798    -1.10908793    -1.40479035    -1.77514170
O       1.60783099     4.42219002     9.23631402     1.95375296     1.80406945    -0.24353575
O       4.21739901     0.90226399     4.75598900     0.84910996    -1.86669641    -1.63043611
O       0.85811298     4.73934098     4.53652401     0.73558080    -1.60237585    -0.79510906
O       0.18283900     3.55793298     2.32400800     0.86982843    -0.79975788     1.09804786
O       5.11529501     1.99039799     6.72370698     0.05560938     1.97129458     0.42389819
O       2.74242099     1.98845803     2.28981500    -1.49705700     0.26499676     0.37614610
O       2.52636802     3.54346400     6.96717397     0.87941171    -0.49639073     0.13830895
O       0.19184602     0.64026198     2.05227902     0.20142775     0.89930511     0.17757228
O       5.03560499     5.07992602     7.32908798    -0.34423587    -1.59356056     0.07905631
O       2.54061400     0.79733401     6.82844100    -0.58624233    -1.36314824     1.40043927
O       2.82408198     4.65283500     2.34411202     0.07151218     0.10443722     0.95399455
