# total energy = -4989.22927599 eV

CRYSTAL
PRIMVEC
        3.14482143     0.00000000     0.00000000
        0.00000000     4.92746371     0.00000000
        0.00000000    -0.00006395     4.92746371
PRIMCOORD
6 1
Ti      1.57241066     2.46369983     2.46373180     0.00000000     0.00000000     0.00000000
Ti      0.00000000     0.00000000     0.00000000     0.00000000     0.00000000     0.00000000
O       1.57241066     0.96027763     0.96029009     0.00000000    -0.50925576    -0.50925576
O       1.57241066     3.96712203     3.96717351     0.00000000     0.50925576     0.50925576
O       0.00000000     1.50339628     3.42402289     0.00000000     0.50929819    -0.50929819
O       0.00000000     3.42400338     1.50344071     0.00000000    -0.50929819     0.50929819
