# total energy = -19926.59847010 eV

CRYSTAL
PRIMVEC
        5.01494693     0.00000000     0.00000000
        2.51174885     4.70947701     0.00000000
        0.00000000     0.00000000     9.28816166
PRIMCOORD
24 1
Ti      3.30613708     2.79083154     3.44584175     5.14444458    -5.21949459     1.22178199
Ti      4.22055871     1.91864510     5.84232001    -5.14444458     5.21949459    -1.22178199
Ti      5.34835754     1.91864667     1.19820203   -10.81443620     2.86611132     2.28889793
Ti      2.17833841     2.79083019     8.08995978    10.81443620    -2.86611132    -2.28889793
Ti      2.05026285     0.43609320     1.19823928     5.14489966    -5.21861322    -1.22263380
Ti      5.47643304     4.27338363     8.08992257    -5.14489966     5.21861322     1.22263380
Ti      0.92246394     0.43609149     5.84228276    10.81355483    -2.86569120     2.29012306
Ti      6.60423194     4.27338529     3.44587895   -10.81355483     2.86569120    -2.29012306
O       2.47169184     1.65828680     4.73967782    -1.09902771     0.43185782    -1.50510095
O       5.05500400     3.05118989     4.54848394     1.09902771    -0.43185782     1.50510095
O       1.80468004     1.65830582     0.09562683     2.41834376     0.16847623    -2.24966545
O       5.72201587     3.05117090     9.19253463    -2.41834376    -0.16847623     2.24966545
O       3.79912967     0.69645136     0.09559669     1.09852146    -0.43239723    -1.50575376
O       3.72756616     4.01302528     9.19256477    -1.09852146     0.43239723     1.50575376
O       4.46614154     0.69643237     4.73970791    -2.41823835    -0.16936968    -2.25043267
O       3.06055426     4.01304432     4.54845380     2.41823835     0.16936968     2.25043267
O       1.70999263     2.86457083     2.50896418     0.35590714    -3.57097617    -2.93208610
O       5.81670322     1.84490585     6.77919752    -0.35590714     3.57097617     2.93208610
O       3.67362551     1.84486207     2.13514619     2.59614615    -2.57270411    -4.10692256
O       3.85307034     2.86461461     7.15301537    -2.59614615     2.57270411     4.10692256
O       0.45411830     0.50983231     2.13511655     0.35550065    -3.57071057     2.93099724
O       7.07257753     4.19964433     7.15304501    -0.35550065     3.57071057    -2.93099724
O       2.59719601     0.50987608     6.77922712    -2.59642923     2.57300802    -4.10557607
O       4.92949982     4.19960055     2.50893454     2.59642923    -2.57300802     4.10557607
