# total energy = -19957.11844325 eV

CRYSTAL
PRIMVEC
        5.93400000     0.00000000     0.00000000
        0.00000000     9.29699974     0.00000000
        0.00000000     0.00000000     4.64899994
PRIMCOORD
24 1
Ti      4.34036398     7.09849598     2.28992602     3.18113328     0.06430100    -1.50869407
Ti      4.37560899     2.23620998     2.36541802     2.30307191     3.18153565    -1.20604838
Ti      1.54638600     6.81743898     2.62856099    -2.74964776    -0.32406248    -2.37796072
Ti      1.48084200     2.35471901     2.33235402    -1.24582464     1.26189533    -1.31265047
Ti      2.98649902     4.50651400     0.02988798     1.52511365     3.25608867     1.22473002
Ti      2.88296401     0.24384498     4.48690898    -0.46770621    -4.75531980     2.11547233
Ti      0.07933600     4.52355202     4.62084899    -1.50813228     3.58863579     1.67494475
Ti      5.77375301     0.31102599     4.56767001     0.10851268    -3.52507270     2.33843513
O       4.45980601     5.37805400     0.83120098     0.06888965     0.21052149     0.69629099
O       4.30643901     1.16252997     0.71949500     1.53763339    -0.14367638     0.61655565
O       1.53769701     5.36533899     1.06917898     0.04499869    -0.21271181    -1.35202487
O       1.64640600     1.07723502     0.88764202    -1.27277907    -0.55886933    -1.07910731
O       4.55818101     8.66250701     3.64881599    -0.51965922    -1.33814219     0.76868428
O       4.68338900     3.48249400     3.85373899    -1.80542957    -0.89229371    -1.65449830
O       1.76529302     8.26312001     3.64784300    -0.50183761     2.55800357     1.93767765
O       1.52105899     3.69929802     3.79220001     0.14869029    -1.92892715    -1.77732508
O       3.06280500     5.91167401     3.29560600    -0.16372457     0.14025939    -0.23307187
O       3.08446301     1.25293800     3.04616598    -2.05935387     1.31676706    -0.98932127
O       5.77054699     6.27180898     3.38798998     1.83353919    -1.93875597     0.36393696
O       0.00046298     1.20102201     3.02475298     1.14004608     1.69274270    -0.85999242
O       2.90817200     7.81568900     1.43541599     0.46088841     0.14428625    -0.13136748
O       2.92975100     3.30092699     1.48812702     0.74270199    -1.93751644     1.66573402
O       0.02782001     7.77536501     1.40389798    -1.06450190     0.80737271    -0.01010855
O       0.07116900     3.15734601     1.40437699     0.26337696    -0.66706114     1.08970900
