# total energy = -19070.97131264 eV

CRYSTAL
PRIMVEC
        5.17600016     0.00000000     0.00000000
        0.00000000     5.50899976     0.00000000
        0.00000000     0.00000000     9.26300011
PRIMCOORD
22 1
Ti      1.70397599     3.45286700     3.53565499     2.69837197     0.95840503    -1.21308215
Ti      3.81130199     2.25011702     5.96373400    -1.57933027     0.22336750    -0.51206701
Ti      4.24064900     2.23193200     1.45045701     0.50816562    -0.71906172     1.06250929
Ti      1.14139998     2.85177298     7.78785100    -2.02497743     0.20479693    -0.26102260
Ti      1.79464601     0.51088200     1.05671199    -0.23368920     0.78855943     1.63805609
Ti      3.12367600     5.31463100     7.87358200     1.29304066    -0.05397467    -0.47428386
Ti      0.72943300     5.37805099     6.33871498    -0.69620357    -0.19236744    -0.57579182
Ti      4.40056398     5.06036101     3.48828002    -1.83401073     0.98911507     1.41056634
O       3.56394300     3.42461799     4.43576998     0.59677409    -0.13332409    -0.31780672
O       0.88914298     2.00101302     0.15442800    -0.74311440    -0.59129353     0.89116140
O       4.38059600     3.90267698     7.74347203     1.74780958     0.40479026    -1.08508924
O       3.36826701     1.03370399     0.15892902     0.38585794     0.06142573    -0.28184418
O       1.86421202     4.50846603     9.13150501    -0.45371837     0.07901389    -1.59746401
O       4.54547499     0.78619001     4.95528901    -1.48212942     1.06284970     1.40227427
O       1.02680400     4.88612099     4.57034399    -0.36638876    -1.22258572    -2.02690216
O       0.07961498     3.85528000     2.52099201     1.19266552    -2.19522901    -2.57807772
O       4.85998598     1.35179397     7.33079701     0.63353908    -0.58276569    -0.45659929
O       2.36157699     2.07785099     2.20545901     1.80629526     0.60445989     0.70088761
O       2.17224001     3.87412803     6.23441398    -1.10303246    -0.74141027     4.15490476
O       0.00386299     1.13970301     2.58127699    -0.83208103    -0.33134616    -1.87776681
O       2.22979899     1.03211599     6.47422102     0.76166260     1.17345577     1.39356646
O       2.70896899     4.81716999     2.42981101    -0.27550743     0.21311856     0.60387162
