# total energy = -19519.12085361 eV

CRYSTAL
PRIMVEC
        7.60600008     0.00000000     0.00000000
        0.00000000     7.60600008     0.00000000
       -1.89786986    -1.89786986     4.85670466
PRIMCOORD
23 1
Ti      3.77594702     6.63624499     1.25888701     0.86135047    -0.37946154     0.18384269
Ti      3.71731497     2.76084397     1.14149301     0.53819688     0.70753828     1.79817263
Ti      0.04227602     6.70335102     1.18756598    -1.02988455    -0.04667762     0.47575299
Ti     -0.02729798     2.89497400     1.06734998    -0.40059705     0.18342874    -0.38728567
Ti      5.63520425     2.99045721     3.61775482    -0.96560643    -2.35422660    -0.56134299
Ti      5.73638320    -0.96430579     3.56430279    -0.12592419     1.39008749     0.78632977
Ti      1.99817822     2.80390720     3.74981482     0.71318571     0.04841440    -0.19170024
Ti      1.91381323    -1.02476079     3.63074279     0.05496378    -0.01109046     0.36940107
O       3.81729100     4.67723399     0.89583401    -0.54711630     0.32737483    -0.40325274
O       3.86649602     0.94516301     0.92009102    -0.31093365    -0.74925445    -0.76428975
O      -0.09821800     4.76876101     0.76685398     0.74915932     1.35289622     0.32053672
O      -0.11943398     1.07878900     0.71307799     0.36718555    -2.27567037     0.06389168
O       5.77822223     4.73976220     4.10348382     0.52232777     1.58114367    -0.43859719
O       5.74698421     1.04854922     3.93823383     0.57145386    -0.63542936     0.16667414
O       1.91564122     4.68084620     4.19719180    -0.51567067     0.67792816    -1.10952784
O       1.93059821     0.88175720     4.05522582    -0.59553045    -0.02492994     0.24939941
O       3.79839620     2.79585424     3.39794079    -0.29380135     0.34078237    -1.35047449
O       3.79019824    -1.07262578     3.21196679    -0.17275840     0.00500105     0.53464722
O      -0.00143179    -0.97539977     3.21024580     0.92374937    -0.14388978     0.29368334
O       5.73057802     6.68478298     1.69029802    -0.13640504    -0.05404924    -1.07460119
O       5.73408901     2.90406802     1.61375402    -0.04197379     0.11362635     0.72993826
O       1.90850998     6.71884199     1.64632202    -0.51475896    -0.14525273     0.01663659
O       1.78209599     2.82491998     1.71881401     0.34938811     0.09171077     0.29216587
