# total energy = -4986.97434256 eV

CRYSTAL
PRIMVEC
        4.07238674     0.00000000     0.00000000
        1.56629535     3.75912924     0.00000000
       -2.81937885    -1.87958982     5.30869411
PRIMCOORD
6 1
Ti      1.17461143     2.81949165     1.32717325    -0.00019515     0.00019515     0.00000000
Ti      1.64469193    -0.93995220     3.98152014     0.00019515    -0.00019515     0.00000000
O       0.39161618     0.93977739     0.86474276    -0.00058261    -0.00086518    -1.75110059
O       2.42768700     0.93976199     4.44395068     0.00058261     0.00086518     1.75110059
O      -0.39158100    -0.93975394     3.51908970    -0.00086518    -0.00058261    -1.75110059
O       3.21088411     2.81929327     1.78960379     0.00086518     0.00058261     1.75110059
