# total energy = -19517.92027361 eV

CRYSTAL
PRIMVEC
        7.60600008     0.00000000     0.00000000
        0.00000000     7.60600008     0.00000000
       -1.89786986    -1.89786986     4.85670466
PRIMCOORD
23 1
Ti      3.72908001     6.57154900     1.27015298     1.82328126     0.88651181    -0.24214967
Ti      3.83316002     2.86808698     1.10558701    -1.18668488    -1.09594547     0.56322555
Ti      0.04525698     6.61798398     1.30661102    -1.62384945    -0.14974213     0.51909795
Ti      0.02339598     2.83221300     1.00191298     1.94336107    -0.10392326     0.20956067
Ti      5.56164824     2.91022923     3.56219979    -0.81743833    -0.63957989     1.15064005
Ti      5.69328124    -1.07324777     3.68528181     0.82639246     0.99590355    -1.16502204
Ti      1.83608821     3.03174822     3.61616682     1.34568298    -1.93723850    -0.82696427
Ti      2.01316224    -0.91777078     3.71786479    -1.51012797     0.88110838     0.62530409
O       3.73936002     4.72276000     0.72066099    -0.69027743     0.82231571     0.85497234
O       4.16096601     0.93141102     0.75599199    -0.45258760     0.19920632     0.48315700
O       0.12601398     4.68608601     0.99154899     0.59011467     1.65139703    -0.93634778
O       7.29003300     0.95068799     0.74723802     0.92274921    -1.01374933    -0.16685334
O       5.71316920     4.76064920     3.96908883     0.83986350    -0.90947512     1.35374031
O       5.72214521     1.07052023     3.89522881     0.26668006    -0.99241919     0.82412860
O       1.66500621     4.80231223     4.12195480    -0.27136796    -0.20803575    -0.37521948
O       1.85019221     1.03056121     4.01978480    -0.03244528    -0.70542201     0.61393544
O       3.73322924     2.97690821     3.41574882     0.53488916     0.36163016    -1.18202167
O       3.80603524    -1.00868778     3.34342082    -0.21094289     0.07354283    -1.31049485
O       0.04480523    -0.86569175     3.24232182    -0.98533529    -0.24484599    -0.15998978
O       5.64085602     6.30436301     1.65888199     0.22036368     1.03826146     0.20426779
O       5.96509599     2.89547101     1.79263799    -1.63761463     0.24682420    -0.45601565
O       1.87557600     6.86430202     1.69649501     1.03149869    -0.40452595    -0.62850923
O       2.02331001     2.45973699     1.56511802    -0.92620478     1.24820137     0.04755848
