# total energy = -4989.06323940 eV

CRYSTAL
PRIMVEC
        3.10087421     0.00000000     0.00000000
        0.96209992     4.76239507     0.00000000
       -0.00000641    -0.00006362     4.88332585
PRIMCOORD
6 1
Ti      2.03148381     2.38116573     2.44166304     0.00000000     0.00000000     0.00000000
Ti      0.00000000     0.00000000     0.00000000     0.00000000     0.00000000     0.00000000
O       1.73793491     0.92810830     0.95168835    -0.18210565    -0.03448185    -0.15583668
O       2.32503270     3.83422316     3.93163773     0.18210565     0.03448185     0.15583668
O       0.29354627     1.45303166     3.39335226     0.18240107     0.03448699    -0.15585725
O       0.66854723     3.30929968     1.48997382    -0.18240107    -0.03448699     0.15585725
