# total energy = -19067.89302019 eV

CRYSTAL
PRIMVEC
        5.17600016     0.00000000     0.00000000
        0.00000000     5.50899976     0.00000000
        0.00000000     0.00000000     9.26300011
PRIMCOORD
22 1
Ti      1.93282297     3.25880998     3.27527200     0.17071874     0.29443307     0.65316046
Ti      3.45344000     2.51514999     6.01743702    -3.29168870    -0.17819346    -2.72671248
Ti      4.46961097     2.16865500     1.44831299    -0.88036019     0.67366373    -0.61926688
Ti      1.27755199     2.05957400     7.86293601    -0.68427673     5.09805157     0.48702960
Ti      1.75763699     0.61694198     1.69923498     6.57168427     0.35147816    -1.92053790
Ti      3.22607000     5.45779699     7.81949702    -0.52844366    -0.17018601     1.74116893
Ti      0.61126402     5.33390602     6.00368100     2.86041941     1.74855109    -1.95107002
Ti      4.24432699     5.18636801     3.62750597     0.61419641    -0.52111678     0.11431000
O       3.47617499     3.47291600     4.54219001     0.20149332     3.56209172    -2.18784531
O       1.51535901     2.33811703     0.44274498    -1.49698269    -1.22998895     0.47338063
O       4.59018099     4.38679600     6.76679402    -2.84909806    -1.55644204     1.73735059
O       3.49579698     0.56775200     0.54875199     0.02406862    -0.25664298    -3.27795283
O       1.21439400     0.35515800     7.86816402    -0.06917273    -3.22656134     2.10538486
O       4.45312102     1.00459501     5.09941202    -0.43435899    -1.21404451    -0.29506814
O       1.21287198     4.91058300     4.29052803    -0.89446887    -1.12831978    -0.14885227
O       0.11011099     3.30296199     2.67795302    -0.01058626     1.14603881    -0.30565337
O       3.93604801     2.04872301     7.52756601     3.59121101    -3.32149679     5.87653408
O       3.18417302     1.75915002     2.78829399    -2.88741728    -1.29246653    -0.25864228
O       2.12623901     3.76335800     7.22713002     0.48041132     0.22792915    -0.79570016
O       0.17685098     0.82345600     2.29905798    -2.17764702    -2.01709314     1.69376754
O       1.74559498     1.45642401     5.93957499     1.61792666     1.64251850    -0.40314013
O       2.73655903     4.34839398     2.13398500     0.07237118     1.36779731     0.00835557
