# total energy = -19074.75066031 eV

CRYSTAL
PRIMVEC
        5.93400000     0.00000000     0.00000000
        0.00000000     9.29699974     0.00000000
        0.00000000     0.00000000     4.64899994
PRIMCOORD
22 1
Ti      4.46600998     6.91896698     2.36686998    -0.48344214    -0.12564420    -0.27569872
Ti      4.41088802     2.29379499     2.26873199    -0.48619142     0.06331190    -0.07941061
Ti      1.51666603     7.12602002     2.45055798     0.39600531     0.36514821     0.12501917
Ti      1.58644202     2.44695402     2.12534099    -0.21668880     0.25352346    -0.07351069
Ti      2.94088198     4.67223702     4.57685001     0.67924303     0.27238097    -0.03028684
Ti      3.01325898     0.09609801     0.04155401     0.11525514    -0.11930694    -0.35906909
Ti      5.83299901     4.51802598     4.54201401    -0.57970427    -0.17488959    -0.02048604
Ti      0.01854301     9.10604201     0.07875200    -0.51600800     0.17775303     0.18769857
O       4.56854802     5.44324801     1.02802598    -0.71967518     0.93819641    -0.16047546
O       4.50841300     0.89873400     0.93338098     0.29792797     0.28340201    -0.09533603
O       1.49315500     0.90176502     0.93840399    -0.83071268     0.27526575    -0.68828714
O       4.38348701     8.23143801     3.93453700     0.98062785     1.03218543    -0.28452584
O       4.30391901     3.85519401     3.58173701     0.61139622    -0.98663421    -0.10610407
O       1.51053403     8.24252099     3.90116798    -0.32170246     1.10418226     0.42217452
O       1.49525398     3.85446697     3.63465198     0.17116509    -0.27490939    -0.00095002
O       2.90781602     6.21542699     3.37853797     0.20248936    -1.32668278    -0.10900530
O       2.78023499     1.30251699     3.12069101     0.88147271     0.47436228     0.91350069
O       5.90543898     6.09694299     3.31245802     0.66295123    -0.25075079    -0.19116468
O       3.01556699     8.06894001     1.62447203    -0.74775292    -1.12426361    -0.46337672
O       3.08626401     3.12636199     1.20323000    -0.54548185     0.71139546     0.31388450
O       5.93139698     8.04055700     1.54081799     0.03988708    -1.29950570     0.84729913
O       5.87156698     3.15666602     1.33310798     0.40893899    -0.26852046     0.12811040
