# total energy = -39034.83026796 eV

CRYSTAL
PRIMVEC
        7.60600008     0.00000000     0.00000000
        0.00000000     7.60600008     0.00000000
       -3.79573973    -3.79573973     9.71340985
PRIMCOORD
46 1
Ti      1.91252247     4.73729047     6.19173160     0.54478765     0.74021188    -0.76977006
Ti      3.75616500     6.89057700     1.09301201    -0.13162536    -0.21129205     0.49128966
Ti      2.06421245     0.65165845     6.03419860    -1.36341332    -0.83968224     1.09441489
Ti      3.80823101     2.90261702     1.26590401    -0.42057067    -0.65169339     1.06238716
Ti     -1.88340253     4.80889747     6.01422862     0.05927886    -0.51192817    -0.51246964
Ti     -0.02320903     6.82029601     1.11754499    -0.23396430    -0.28941351    -0.35146350
Ti     -1.93600455     0.92862347     6.16433165     1.21175597     0.43185370    -0.92921297
Ti     -0.22845000     2.99174301     1.22305600     0.60193892    -0.25112462     0.50882150
Ti      3.84010643     0.91639244     8.53322864    -0.32787131     2.36798329    -0.42729899
Ti      5.72243298     2.84572300     3.82782798    -1.37995760     0.20118838    -1.40341558
Ti      4.06469147    -2.67812256     8.43868361    -2.60891683    -1.78305865     0.17623402
Ti      5.67898001    -0.87857399     3.63689501     1.02216944    -0.18484902     0.76570617
Ti      0.03935544     0.95191642     8.33495561     0.41085421     1.24666308    -0.58066561
Ti      1.80150002     2.67177799     3.46369000     0.14135750     1.36596925     0.43659019
Ti      0.00066047    -2.74092357     8.40783062     1.42898239    -0.42073728     1.25800293
Ti      1.88577398    -1.13801197     3.62191199    -0.90094522    -1.07963284     0.62843287
O       1.63672243    -1.10904254     5.63185064     0.90025951     0.22568895    -0.20731584
O       3.56393300     1.09413101     0.83379099    -0.03311094    -0.96315797    -1.08911250
O      -2.06164054     2.82849743     5.64858164    -0.08132917    -0.32195314     2.04238278
O       0.10254201     4.87210102     0.68878902    -1.55112577    -1.00625945     1.41836475
O      -1.80725054    -0.96840156     5.67803564     0.30844662     0.50018285     0.40760073
O      -0.08363001     1.06170599     0.67080699     0.13313743    -0.61990606     0.47764018
O       3.76167744     2.93634646     8.83117761    -0.02390278     0.31477359     0.94871608
O       5.76220600     4.73112899     4.15740899    -0.64208800     1.28691371    -0.98058414
O       4.08999144    -0.83343856     8.97337362    -0.14005164    -1.59082053    -0.37464484
O       5.96287302     1.06630698     4.19164602    -0.60576319    -3.22031125    -0.33129988
O       0.21390345     2.77482447     8.99637161    -0.29096491     0.33089133     0.14026607
O       1.82831899     4.43818203     4.17007099     0.58785493     0.35447452    -0.05061347
O      -0.18263457    -0.70883256     9.02675665     0.15526281    -1.33472468    -0.87870646
O       1.79415499     0.94217501     4.18974400     0.22047038     0.11825536    -0.89046669
O       1.98864144     0.87789045     8.04750864    -0.26234415     0.03378097    -0.21258866
O       3.84398202     2.77149298     3.27199401    -2.16216743     0.33086202    -0.49660567
O       1.98121946    -2.74700954     8.12182460    -1.16493848     0.41989344    -0.05140614
O       3.69789798    -1.02044498     3.51131701     0.51965614     0.21944142    -0.97557769
O      -1.94885054     1.18421645     8.14310663     1.80044728    -0.09582299    -1.35345080
O      -0.13978699     3.01383801     3.26263800     0.70874079    -0.22185646    -0.82684497
O      -1.83521253     4.43806746     7.96933763     0.98324215     1.05839758     0.76851485
O      -0.09383302    -1.13983801     3.26134903     0.65789258     0.63331205    -0.97554169
O       3.83422647     4.74049443     6.42251665     0.31089122     0.23348839     0.48102607
O       5.60829802    -0.60398000     1.74280199    -0.29744049    -0.75501886    -0.63302152
O       3.89023946     0.44115047     6.47351161    -0.54357769     1.02513263    -0.17680403
O       5.55997302     2.63239599     1.66310699     1.09717343     0.99229295    -1.04590484
O       0.11048443     4.52153443     6.34843760    -1.35232312    -0.37312609     1.50849558
O       1.86452699     6.44082100     1.53541102     0.87702187     1.06869305     0.89721146
O       0.13714644     0.88293843     6.37488863    -1.15541537     0.68090370     1.28732586
O       1.55414199     2.64002699     1.66929302     2.99218541     0.54512138    -0.27463763
