# total energy = -4988.84787739 eV

CRYSTAL
PRIMVEC
        3.57607622     0.00000000     0.00000000
        0.17868448     3.57160930     0.00000000
       -1.87741210    -1.78583485     4.56529641
PRIMCOORD
6 1
Ti      0.13386890     2.67884260     1.14132398     0.00262998    -0.00255002    -0.00157249
Ti      1.74347925    -0.89306858     3.42397218    -0.00262998     0.00255002     0.00157249
O       0.04470874     0.89289648     0.74364946     0.00027408     0.00155629     1.22290813
O       1.83263926     0.89287744     3.82164676    -0.00027408    -0.00155629    -1.22290813
O      -0.04469110    -0.89287971     3.02629766     0.00154241     0.00020003     1.22257955
O       1.92203910     2.67865358     1.53899860    -0.00154241    -0.00020003    -1.22257955
