# total energy = -19516.86012497 eV

CRYSTAL
PRIMVEC
        5.93400000     0.00000000     0.00000000
        0.00000000     9.29699974     0.00000000
        0.00000000     0.00000000     4.64899994
PRIMCOORD
23 1
Ti      4.42065202     7.04258798     2.24910401     1.67916393    -0.03889669     0.03908438
Ti      4.46155197     2.23548802     2.28407501    -1.00161912     0.06137894     0.42330787
Ti      1.47968299     7.21949399     2.41385298    -1.41063807    -1.28106805    -0.46273755
Ti      1.38458502     2.29188001     2.35261998     1.32934902     0.22488085    -0.12875987
Ti      3.06537500     4.39302098     0.03369801    -0.44319973    -0.40574208     1.02209642
Ti      2.84942698     0.07232101     4.56148800     1.72579399     0.08081494     0.51916711
Ti      0.10523399     4.57746301     0.12755098    -0.07811811     1.20236501    -1.08787606
Ti      5.89396399     0.11649700     0.03993600    -1.32467989    -0.58193908     0.86439312
O       4.42366701     5.52575399     0.82826601    -0.13841925     0.50635196     0.72712290
O       4.31325000     1.03840902     0.88931401     1.13971749    -0.80373820    -0.36116762
O       1.64292301     5.45582798     0.71823598    -0.21179033     0.75418968     0.85410536
O       1.48887401     0.93832498     0.94492298    -0.04629324    -0.49986918    -0.85329623
O       4.45788102     8.53143801     3.84358000    -0.20683941    -1.52194863    -1.45023950
O       4.55439501     3.74959198     3.74259700    -0.48919575    -0.55978670    -1.15696934
O       1.51241901     8.20514002     3.93817001    -0.46482220     0.87591732    -0.58495730
O       1.41178098     3.69519600     3.61786198     0.67724811     0.49166967     0.59110532
O       2.86297000     1.45939301     3.21221899     0.85402180    -0.88078725     0.80339933
O       0.08431302     6.11214800     3.19737398    -0.35708882     0.41880381    -0.87537456
O       0.03868900     1.25401498     3.15243800    -0.45537236     0.54084718     0.19408596
O       3.06493102     8.06902499     1.40168602    -0.24761841    -1.39200065     1.37068954
O       2.97894702     3.09605702     1.46245298     0.02412724     1.89849274    -1.45454199
O       0.01660198     7.97809001     1.40072102    -0.22143943    -0.15372863     0.32119261
O       5.93242702     3.03008200     1.24095103    -0.33228718     1.06379330     0.68617061
