# total energy = -19036.01581321 eV

CRYSTAL
PRIMVEC
        7.60600008     0.00000000     0.00000000
        0.00000000     7.60600008     0.00000000
       -1.89786986    -1.89786986     4.85670466
PRIMCOORD
22 1
Ti      4.15844898     6.59217701     1.43206101    -0.93294647     0.20209958    -2.49118417
Ti      4.60593423     2.74358221     2.52747681    -5.04482432     2.93797496    -2.26634497
Ti      0.06424498     6.19117999     0.49600599    -0.77303253     2.64141276     2.17605320
Ti      5.64824625     0.86092021     4.78067581    -8.73729750    -3.69493732     9.30897478
Ti     -0.83437377     2.53165122     4.03446979   -11.72071724    21.95453617    20.38468633
Ti     -0.95853680     1.51218220     2.89644781    -2.12371349   -25.74778017   -25.72567099
Ti      0.86465922     2.36231625     4.21083182    23.57833188     6.00123031     4.34235342
Ti      0.83667924    -0.72705276     4.11058479     0.14626806    -1.44655820     3.75079867
O       4.22836298     4.53125197     2.25499900    -0.31441621     0.82144077    -0.98900091
O       3.76252301     0.73747300     1.09264699     0.87664109    -0.15328948     1.28699753
O       0.79420901     4.19818300     1.10720100    -1.02820716     1.95508839    -2.38649241
O       0.42327200     1.10708500     0.62822801     1.00151113    -2.81067265     0.51405884
O      -1.32697879     4.25353224     3.54282682    -2.91640391     2.55910837     2.93898849
O       4.15327622     0.97462321     3.83452482     1.70038119     0.88906878    -1.74261209
O       1.14966821     4.70678123     4.74591479    -0.70163374    -1.71997866     0.67149012
O       3.36221201     2.94278099     0.16487401     0.37720411    -5.81575395     0.52029351
O       2.59532421     2.89576020     3.43036279    -0.67633202    -1.01176007    -0.12734396
O       0.12185825     2.82360022     2.62919484     5.88801457     2.16329126    -6.10116862
O       5.83501401     6.36427000     0.62263598     1.74448694     0.00964164     0.51041970
O       6.02606002     2.27884902     1.33484998    -3.34340517     0.96372413    -0.87567230
O       0.96535599    -0.92033502     2.42240300     0.41371019     0.21254084    -1.44614193
O      -1.19872676    -0.52443476     3.81588683     2.58638033    -0.91042745    -2.25348303
