# total energy = -39036.87619786 eV

CRYSTAL
PRIMVEC
        7.60600008     0.00000000     0.00000000
        0.00000000     7.60600008     0.00000000
       -3.79573973    -3.79573973     9.71340985
PRIMCOORD
46 1
Ti      1.89414647     4.73332344     6.29336660     0.68952384     1.25448052    -0.95030785
Ti      3.79246799     6.88033599     1.28036198     0.10067827    -0.03562985     0.65556573
Ti      1.83848147     0.86919147     6.05770064     0.18964618     0.07794174     0.67359560
Ti      3.71756099     2.92337198     1.20755603     0.30266601    -0.63341078    -1.03579757
Ti     -1.85835853     4.66092442     6.09512664    -0.77838994    -0.31355412     0.05242944
Ti      0.02873099     6.59671698     1.23934100     0.21275989     0.15711529     0.09093610
Ti     -2.01671456     0.86358547     5.95977363     0.63430424    -0.01388242    -0.29461716
Ti     -0.21119898     2.86165198     1.10825703     0.93733946     0.94352913    -0.55860759
Ti      3.82605746     1.09807343     8.38607360    -0.84417833    -1.44888633     0.00996457
Ti      5.66475599     2.76768999     3.59052299     0.38452610    -0.65094211     0.70032505
Ti      3.93043047    -2.79839953     8.55985562     0.77259288     0.97644801    -1.68964066
Ti      5.77825700    -1.13533402     3.65508399    -0.28776594     0.40748144     0.85156562
Ti     -0.09406956     1.08685043     8.27972162     0.68398800    -2.06147657     0.71675312
Ti      1.84857801     2.83376301     3.48234101     0.18798345    -0.61928848     1.36113789
Ti      0.09297443    -2.77553155     8.52406065    -1.26281424     1.26494569     1.43747500
Ti      1.95633199    -1.03135201     3.77280302     0.03062519     0.66747534     0.77886817
O       1.89590244    -0.90830555     5.75449562     0.20940846    -1.85545168    -0.49545819
O       3.90907098     1.11360098     0.90237199    -0.16527880    -1.50712775    -1.37417262
O      -1.66853154     2.80860344     5.56555764    -0.57032566    -1.06533930     0.33067510
O       0.19980701     4.86616900     0.73281497    -0.52293918    -0.85591490     0.16708114
O      -1.91297856    -1.13715455     5.64601560    -0.12171427     1.63346332    -0.46510348
O      -0.02805698     0.96222400     0.69680901    -0.10710037     0.30178386     1.27374272
O       3.88909147     2.87560643     8.79049562    -0.05869522     1.09856902     0.94647973
O       5.65570399     4.57160603     4.07105801    -0.06663428     1.10162401    -0.73107314
O       3.59951244    -0.78940757     8.81980564     0.53930297    -1.64849837     1.25453426
O       5.77112401     0.85922198     4.07774300    -0.05605110    -0.43385351    -0.40638897
O      -0.19586057     2.80303443     9.00136064     0.39526715     0.79110997     0.46661529
O       2.07125098     4.49780099     4.46249597    -0.16394902    -0.35311647    -2.67843280
O       0.08593145    -0.77551355     8.81554963    -0.57681847    -0.06883720     1.17974547
O       1.83026398     1.06980902     4.12788101     0.08997605    -0.49034401    -0.11286813
O       1.86122143     0.95421845     8.03123163     0.01220709     1.27705764    -0.33952561
O       3.83729798     2.42401498     3.09768800    -0.17604941     1.66056045     0.47562906
O       1.94469443    -2.70972154     8.12777060     0.06559427    -0.84671498     1.21256690
O       3.88786901    -0.96486899     3.34308500    -1.50158908    -0.25311466    -0.72364599
O      -2.02456157     0.67636245     7.93046961     1.10329086     0.83707745     0.30790206
O      -0.03272501     2.68516798     3.11724602    -0.94249323     0.50555980    -0.41601699
O      -1.81375857    -2.63163455     8.16872363    -0.94118274    -0.43864039     0.44315525
O       0.05336102    -1.06791700     3.40023800     0.49969871    -0.33497681    -0.77646367
O       3.94214545     4.58041847     6.54274662    -1.92375358    -0.19548773     0.38962100
O       5.76442801     6.59446401     1.69756500    -0.51701304    -0.03615615    -0.73471923
O       3.77360144     1.12665546     6.36453464    -0.53232217     0.26710506    -0.22546552
O       5.62099801     3.17103202     1.44373201     0.33899262     0.14785777     0.78315960
O      -0.05142857     4.79351545     6.56490660     2.57878220    -0.63361698     0.03258694
O       1.89249702     6.68517700     1.74545301     1.09472240     0.10552531    -0.09044476
O      -0.03609153     0.86267047     6.43827364    -0.26371352     0.60564286    -0.79997128
O       1.85532301     2.94148001     1.66157598     0.32689558     0.71190865    -1.69339011
