# total energy = -19940.14492594 eV

CRYSTAL
PRIMVEC
        6.43734244     0.00000000     0.00000000
        0.00002429     4.11076725     0.00000000
        0.00000000     0.00000000     9.83161793
PRIMCOORD
24 1
Ti      2.33324123     2.43603685     3.64746015    -0.00388031     1.55397481    -1.27246539
Ti      4.10412508     1.67473035     6.18415789     0.00388031    -1.55397481     1.27246539
Ti      5.55180169     1.67473173     1.26830959    -0.00306553    -1.55440342     1.27395818
Ti      0.88556467     2.43603563     8.56330849     0.00306553     1.55440342    -1.27395818
Ti      2.33322929     0.38065328     1.26834903    -0.00388031     1.55397481     1.27246539
Ti      4.10413702     3.73011403     8.56326911     0.00388031    -1.55397481    -1.27246539
Ti      0.88555268     0.38065179     6.18411845     0.00306553     1.55440342     1.27395818
Ti      5.55181363     3.73011552     3.64749953    -0.00306553    -1.55440342    -1.27395818
O       2.03746796     1.44747099     5.01699939     2.02281025    -0.97831129     1.61394736
O       4.39989840     2.66329616     4.81461864    -2.02281025     0.97831129    -1.61394736
O       1.18125778     1.44748759     0.10122202    -2.02281488    -0.97815933     1.61339766
O       5.25610864     2.66327961     9.73039569     2.02281488     0.97815933    -1.61339766
O       4.39988647     0.60791248     0.10119011    -2.02281025     0.97831129     1.61394736
O       2.03747990     3.50285467     9.73042760     2.02281025    -0.97831129    -1.61394736
O       5.25609665     0.60789593     5.01703125     2.02281488     0.97815933     1.61339766
O       1.18126961     3.50287127     4.81458673    -2.02281488    -0.97815933    -1.61339766
O       0.23389823     2.50040168     2.65576528     0.28977243     0.13448366     1.64188678
O       6.20346814     1.61036547     7.17585270    -0.28977243    -0.13448366    -1.64188678
O       3.45257686     1.61032726     2.26007496     0.29023086    -0.13435870    -1.64236449
O       2.98478945     2.50043994     7.57154286    -0.29023086     0.13435870     1.64236449
O       0.23388624     0.44501800     2.26004358     0.28977243     0.13448366    -1.64188678
O       6.20348007     3.66574915     7.57157424    -0.28977243    -0.13448366     1.64188678
O       2.98477752     0.44505626     7.17588403    -0.29023086     0.13435870    -1.64236449
O       3.45258879     3.66571089     2.65573390     0.29023086    -0.13435870     1.64236449
