# total energy = -4984.33984934 eV

CRYSTAL
PRIMVEC
        3.01057314     0.00000000     0.00000000
        2.02041894     4.26252256     0.00000000
       -0.00001320    -0.00006338     4.84746832
PRIMCOORD
6 1
Ti      2.51548934     2.13122961     2.42373405     0.00000000     0.00000000     0.00000000
Ti      0.00000000     0.00000000     0.00000000     0.00000000     0.00000000     0.00000000
O       1.89903382     0.83069057     0.94470015    -4.21066147     2.06374120     2.38815669
O       3.13194481     3.43176867     3.90276796     4.21066147    -2.06374120    -2.38815669
O       0.61645000     1.30051346     3.36843521     4.21123483    -2.06563584     2.38984950
O       1.40395562     2.96194564     1.47903290    -4.21123483     2.06563584    -2.38984950
