# total energy = -19073.34203668 eV

CRYSTAL
PRIMVEC
        5.93400000     0.00000000     0.00000000
        0.00000000     9.29699974     0.00000000
        0.00000000     0.00000000     4.64899994
PRIMCOORD
22 1
Ti      4.45027600     6.96887798     2.17960002    -1.53952521    -0.02746813     0.09723299
Ti      4.39436102     2.38851698     2.30417401     0.06948049    -1.83158901    -0.00752074
Ti      1.51945098     6.95473302     2.61910200     1.07327296     1.25156540     0.97598084
Ti      1.64063400     2.58299999     2.05565798    -1.86880703    -1.29813556     0.54844813
Ti      3.08459102     4.59796397     4.57789397    -1.27454619     1.60558330    -0.16240379
Ti      2.94179201     9.28828203     0.00008800     0.19299350     0.00855586    -1.26689124
Ti      5.92334401     4.61099697     4.36304399     0.54135677    -0.96764943     1.38569091
Ti      5.83926801     9.14802000     0.36003098     0.64579759    -0.29793492    -0.03868920
O       4.43343001     5.68799301     0.58697902     0.39380085     0.43566048     2.56992449
O       4.26255498     0.65077901     1.14112502     1.97371579     1.67648638    -0.11925295
O       1.57987699     0.91686700     0.83457999    -2.40543091     1.38376129     0.73593433
O       4.40095398     8.25431498     3.83508501     0.92764794     1.24705723     1.05296227
O       4.37728399     3.71407397     3.68079301     1.01421264    -1.40786822    -1.32582635
O       1.46781101     8.29343202     4.01546598    -1.09750330    -1.00735319    -0.65621262
O       1.54792601     3.60531000     3.61666700    -0.79208287     1.43921744     0.18431860
O       3.08244700     6.09529699     3.19885002    -1.13046049    -1.72428321     0.23299705
O       2.84175401     1.45137100     3.14275601     0.44597498    -0.01290463     0.20332806
O       5.89117501     6.12757002     3.32882098     0.37984927    -1.04924394    -0.87585562
O       2.85758700     7.90151700     1.65961998     0.09779760    -0.12030093    -1.41827142
O       3.13455498     3.21697899     1.21749498    -0.02264063     0.55676463    -0.08237612
O       0.00399698     8.04646601     1.84794898     0.86584374     0.41974792    -1.88881562
O       5.72475998     3.27758302     1.33234401     1.50925200    -0.27966902    -0.14470200
