# total energy = -19954.20167207 eV

CRYSTAL
PRIMVEC
        5.55361133     0.00000000     0.00000000
        0.88167902     5.84459361     0.00000000
        0.00000000     0.00000000     9.96797093
PRIMCOORD
24 1
Ti      2.53539914     3.46350070     3.69804615     0.28838224    -1.37573353     0.77364677
Ti      3.89989113     2.38109274     6.26992500    -0.28838224     1.37573353    -0.77364677
Ti      5.14882816     2.38109471     1.28589956    -0.49243226    -0.22548275     0.02740308
Ti      1.28646213     3.46349895     8.68207170     0.49243226     0.22548275    -0.02740308
Ti      2.09455975     0.54120400     1.28593954     0.28838224    -1.37573353    -0.77364677
Ti      4.34073053     5.30338961     8.68203173    -0.28838224     1.37573353     0.77364677
Ti      0.84562272     0.54120186     6.26988503     0.49243226     0.22548275     0.02740308
Ti      5.58966757     5.30339175     3.69808613    -0.49243226    -0.22548275    -0.02740308
O       2.06820720     2.05798069     5.08657931     1.13955191     1.32229262    -0.42106329
O       4.36708308     3.78661275     4.88139178    -1.13955191    -1.32229262     0.42106329
O       1.32954280     2.05800432     0.10262584    -0.53439422     0.19343805     0.52650042
O       5.10574753     3.78658917     9.86534503     0.53439422    -0.19343805    -0.52650042
O       3.92624368     0.86431588     0.10259351    -1.13955191    -1.32229262    -0.42106329
O       2.50904660     4.98027756     9.86537736     1.13955191     1.32229262     0.42106329
O       4.66490813     0.86429231     5.08661170     0.53439422    -0.19343805     0.52650042
O       1.77038209     4.98030120     4.88135945    -0.53439422     0.19343805    -0.52650042
O       0.73806269     3.55501314     2.69259768     0.17819037     0.52158498     0.62631479
O       5.69722758     2.28958025     7.27537348    -0.17819037    -0.52158498    -0.62631479
O       3.32397581     2.28952589     2.29141961     0.65024431     0.67442735     0.03409361
O       3.11131446     3.55506749     7.67655137    -0.65024431    -0.67442735    -0.03409361
O       0.29722329     0.63271627     2.29138773     0.17819037     0.52158498    -0.62631479
O       6.13806698     5.21187712     7.67658320    -0.17819037    -0.52158498     0.62631479
O       2.67047506     0.63277063     7.27540524    -0.65024431    -0.67442735     0.03409361
O       3.76481522     5.21182276     2.69256585     0.65024431     0.67442735    -0.03409361
