# total energy = -19517.30134170 eV

CRYSTAL
PRIMVEC
        5.17600016     0.00000000     0.00000000
        0.00000000     5.50899976     0.00000000
        0.00000000     0.00000000     9.26300011
PRIMCOORD
23 1
Ti      1.89415102     3.16649702     3.42029202    -0.44010643     0.29154675     2.15354344
Ti      3.37432599     2.29066602     5.91138000     0.55368573    -0.22641297    -2.14129958
Ti      4.39000901     2.10120998     1.48132000     0.42165233     0.19521005    -1.78680680
Ti      0.79827801     3.45364098     7.73892502     0.10712042    -0.48767520     2.02360189
Ti      1.95478399     0.19235699     1.35934602     1.40850406    -0.01818182    -2.06729241
Ti      3.34178000     5.15136400     7.89322400    -0.01575161    -0.54577136     1.76825731
Ti      0.73632099     0.54668598     5.89739798     0.64812778     1.12063501    -3.52089620
Ti      4.48543898     4.95132198     3.36696899     0.57138547    -0.12835440     2.99454311
O       1.74701302     1.90396302     4.80527398    -0.15551143    -0.20012806     0.25720734
O       3.61700800     3.57885400     4.48588503    -0.63593329    -0.87582116     0.43771685
O       4.73526901     3.08471903     9.23697199     0.23450809     0.02856188     0.09449296
O       3.54758799     0.52228001     0.22654099     1.01828193     1.64894163     0.53081910
O       1.90938100     4.54963702     9.02257901    -1.79755967    -0.93706229     0.56387399
O       4.22608598     0.80348601     4.87280398     0.25663733     0.45449510    -0.41602753
O       0.83307602     4.71077901     4.50300597     1.33047156    -0.30646815     0.02344153
O       0.18834202     3.37757201     2.53751800     0.19416361    -1.02228257    -0.41014253
O       5.11944598     1.95633300     7.02047001    -0.88571631     0.36501631    -1.09983247
O       2.61460399     1.98783100     2.07644401    -0.51327337    -0.24810872    -0.13383805
O       2.47459798     3.72021201     6.81829398    -0.11283008    -0.64764879     0.63325780
O       0.24373100     0.48880600     2.01212998    -0.48587080     1.44521145    -0.31055647
O       5.09005802     4.86465798     7.00439202    -1.27353703    -1.28101972     1.61297600
O       2.42177900     0.87731598     7.04839099    -0.77083553     1.23957583    -1.00366006
O       2.77428899     4.61354602     2.48694998     0.34238751     0.13574093    -0.20337922
