# total energy = -19519.17737181 eV

CRYSTAL
PRIMVEC
        7.60600008     0.00000000     0.00000000
        0.00000000     7.60600008     0.00000000
       -1.89786986    -1.89786986     4.85670466
PRIMCOORD
23 1
Ti      3.78529700     6.66208699     1.19855102    -0.37275945    -0.06240378     0.01065080
Ti      3.80402299     2.75300998     1.27516302    -0.70998469     0.08762966    -0.05260530
Ti     -0.05104502     6.58166702     1.16841898     0.36333738     0.90854566    -0.37415838
Ti      0.01557898     2.81667498     1.19049599     0.41443936    -0.64283439     0.49117807
Ti      5.66690721     2.86801121     3.65309180     0.23037710     0.93138761    -0.04020281
Ti      5.71207322    -0.83404579     3.59017681    -0.30932619    -1.17584433     0.84269814
Ti      1.99656322     2.84397825     3.77150384     0.19512983     0.22562493    -1.39599383
Ti      1.87054924    -0.90588276     3.55383281     0.09986863    -0.41270155     0.44246953
O       3.62976598     4.75508802     0.74682902     0.24025220    -0.26978698     1.20123758
O       3.84749099     0.86524100     0.76481099    -0.06405572     1.50219560     0.24300225
O       0.05495702     4.75124202     0.71139197    -0.01944192     0.43057792     1.10734600
O      -0.09847899     0.94987697     0.75144201    -0.14842547    -0.54007019     0.22034002
O       5.74462122     4.78285221     3.95471384     0.05265698    -0.46307693     0.60211556
O       5.91887723     0.96006723     4.19936883     0.08755175     0.40698521    -2.48160424
O       2.02235220     4.78534924     3.97038283    -0.60511655    -0.63552911     0.33525218
O       1.74916725     0.94449820     4.11469682     0.03475284     0.00547645     0.06312909
O       3.87103525     2.85227321     3.36507983    -0.93787476    -0.59503217    -0.98689055
O       3.71929621    -0.69170277     3.20408580     1.16443377    -0.27108411    -0.32829271
O      -0.04371676    -0.98170275     3.18857779     0.11804762     0.19016297    -0.25169644
O       5.66123400     6.60643898     1.63615002     0.06830035    -0.19859722    -0.29716050
O       5.74168302     2.92973201     1.64554799     0.33760320    -0.29145908     0.08577846
O       1.85634702     6.58562998     1.61343101    -0.08092782     0.37752782    -0.23695270
O       1.88106198     2.65192998     1.66434601    -0.15883818     0.49230627     0.80035977
