# total energy = -19519.24927670 eV

CRYSTAL
PRIMVEC
        7.60600008     0.00000000     0.00000000
        0.00000000     7.60600008     0.00000000
       -1.89786986    -1.89786986     4.85670466
PRIMCOORD
23 1
Ti      3.84904402     6.62917799     1.23187902    -0.54587369    -0.27765662    -0.43048382
Ti      3.82810601     2.82888601     1.21800098     0.38365553     0.47510173     0.84688801
Ti     -0.05979999     6.73798799     1.25818601     0.57829994    -1.40776075    -0.14096027
Ti      0.01602301     2.86118699     1.13451602    -0.86015465     1.26967780    -0.50142264
Ti      5.64618124     2.90489221     3.62076680    -0.76998809    -0.81964717     0.83866665
Ti      5.72343625    -0.99115576     3.69227780    -0.59506354     0.91065834    -0.51061562
Ti      1.88549024     2.77676824     3.56771080     0.82295952     0.60017206     1.64111493
Ti      1.90320223    -0.96249679     3.64861480     0.51870534    -0.39299404    -0.30430457
O       3.95643499     4.70882100     0.72204500    -0.76463968     0.25390167     1.13526357
O       4.04894999     0.95942899     0.75397497    -0.47957417    -0.37488986     0.00840237
O       0.10746701     4.73128097     0.75094702     0.07511969     1.39460750     0.44664038
O      -0.14400098     0.96171800     0.78176398     0.25826767    -0.66321322     0.30291412
O       5.44739924     4.77376020     4.00853979     0.84510495     0.02353537     0.84254079
O       5.79028324     1.01472124     4.03161684     0.12737198    -0.72279239    -0.35781079
O       1.89361422     4.70084323     3.98636980    -0.45577191     0.72326907     0.34802028
O       1.72516525     0.96075622     4.06127680    -0.29004985    -0.49496505     0.07138671
O       3.76341520     2.74893923     3.25863181     0.28887743     0.06593905    -1.19826282
O       3.81020823    -0.78239476     3.22483680    -0.36433240    -0.21135710    -0.38684498
O      -0.01906477    -0.89906479     3.31250983     0.33030203    -0.42070231    -0.69287322
O       5.71489300     6.56174599     1.71395299     0.33098517     0.01982758    -0.50466017
O       5.77467299     2.93645102     1.70489400     0.18417976    -0.13584609    -0.55718603
O       1.92340600     6.66919500     1.59506602    -0.39159176     0.15900479     0.25718317
O       1.78757297     2.70136800     1.71203700     0.77321097     0.02613013    -1.15359605
