# total energy = -19073.79266869 eV

CRYSTAL
PRIMVEC
        5.93400000     0.00000000     0.00000000
        0.00000000     9.29699974     0.00000000
        0.00000000     0.00000000     4.64899994
PRIMCOORD
22 1
Ti      4.43867501     6.91470197     2.36598202    -1.93482449     0.92027607    -0.93306088
Ti      4.51828401     2.28751498     2.12590203    -1.20489961     0.05117963     0.58936828
Ti      1.40363699     7.11225199     2.60556300     2.38254371     0.14342030    -0.36616096
Ti      1.58174700     2.45433599     2.27821099     1.24181526    -0.71515801    -0.18387740
Ti      3.02410003     4.57475299     4.44120903    -0.43609525     0.35666125     0.87266128
Ti      2.87180001     0.00692000     4.60197900     1.03761457     1.03705999     1.42532576
Ti      5.84893301     4.64784798     4.50008698     0.16771672    -0.95928460     0.93714277
Ti      5.86372098     9.14843403     0.31313000     0.76837806     1.08850932    -1.31609138
O       4.35284701     5.59751201     0.75296700     0.80570510     0.08793433     1.28397314
O       4.45079999     0.71019598     1.10242999    -0.51318621     1.02516297     0.28162280
O       1.55127999     0.72566399     1.22616698    -0.20487560     0.99979543    -1.23906984
O       4.68500998     8.30142900     3.71860199    -0.83658071     1.00904884     0.56373180
O       4.45428399     3.95488100     3.55919702     0.14387873    -2.13053231    -1.57147143
O       1.44694502     8.49364502     3.78964800    -0.92873114     0.15396337    -0.09085871
O       1.47604400     3.97650700     3.41001598    -0.00614005    -0.03673079     1.22397617
O       2.93390399     6.24563402     3.35233402    -0.06932571    -1.23694816     0.07129389
O       3.03869902     1.63733199     3.48558598    -0.03111602    -0.89273517    -0.47543906
O       5.89919501     5.96433101     3.19441398     0.61406991     0.70253055    -0.49308609
O       2.85745798     7.94436401     1.53413501     0.60370682    -1.20683950    -0.54774776
O       3.06010001     3.18871400     1.30291699    -0.12083881     0.51026235    -0.51078429
O       0.10053600     7.86876601     1.46200498    -0.79873895    -2.15806524     0.67101498
O       0.09148898     2.91968801     1.17869697    -0.68007606     1.25048888    -0.19246334
