# total energy = -19519.99019363 eV

CRYSTAL
PRIMVEC
        5.17575250     0.00001323     0.00000000
        0.00001429     5.50856584     0.00000000
        0.00000000     0.00000000     9.26345890
PRIMCOORD
23 1
Ti      1.85245199     3.37395380     3.38601909    -0.02357240     0.02656336     0.03364804
Ti      3.35816820     2.18055777     5.77387825     0.06698086    -0.03186549    -0.00469175
Ti      4.55961751     1.94445840     1.41221653     0.01719092     0.03591293     0.03052646
Ti      0.86305437     3.29077283     7.94596320    -0.01157871     0.02828960     0.00327662
Ti      2.00334941     0.52413513     1.23126490     0.00575207    -0.01186847    -0.02144095
Ti      3.17784698     5.15953156     7.93253074    -0.05596034    -0.01686336    -0.01416190
Ti      0.65590083     0.71312901     5.66478753    -0.04520027    -0.02924400    -0.04015473
Ti      4.52942144     4.84462809     3.55340167     0.03857762     0.01083823    -0.03295796
O       1.56353721     1.94113140     4.66030170    -0.01500573     0.01013144    -0.00004191
O       3.54394672     3.54508765     4.51983933     0.01612442    -0.04532651    -0.00241324
O       0.75370460     2.09886803     0.10914920     0.00131101     0.00320462    -0.02688655
O       3.51681519     0.91668322     0.05732670     0.01319079    -0.03792121     0.07077787
O       1.73086688     4.68770787     9.15445787    -0.01906782    -0.01689524    -0.00138840
O       4.09883044     0.77499992     4.71477294    -0.03852414     0.04761685     0.01406445
O       0.98266981     4.63422078     4.59686866     0.03816393    -0.00356972     0.00938942
O       0.17011336     3.35366612     2.42491837    -0.00859417     0.01202917    -0.01714875
O       4.95364898     2.12318558     6.82585045    -0.00569731     0.01356103    -0.01467303
O       2.77022347     2.15586889     2.09583047     0.01696286     0.00818254     0.03237766
O       2.51046253     3.39401162     7.15305112    -0.03107771    -0.00333421    -0.02220071
O       0.24673465     0.54157352     2.18184624     0.00093974    -0.04096000     0.03677322
O       4.91338493     4.74827224     7.39387363     0.02965614     0.03337113    -0.03778983
O       2.32362990     0.70495292     6.74820689     0.01805429     0.02792296     0.00721863
O       2.80480850     4.88265884     2.45706752    -0.00862631    -0.01977513    -0.00210239
