# total energy = -19515.09140885 eV

CRYSTAL
PRIMVEC
        5.93400000     0.00000000     0.00000000
        0.00000000     9.29699974     0.00000000
        0.00000000     0.00000000     4.64899994
PRIMCOORD
23 1
Ti      4.30766802     7.06266501     2.27401498     1.05221947    -0.05153624    -1.80115742
Ti      4.60982501     2.33674000     2.28990099     0.61488932    -0.02481270     0.30333449
Ti      1.36395801     6.94514702     2.33032198    -1.75413527     0.51256992    -0.86270185
Ti      1.47955398     2.38187400     2.35389799    -1.01140782    -1.48361835     0.02628363
Ti      2.94776197     4.39077902     0.27110301     1.55519249     1.39500087     0.53272146
Ti      3.02397498     0.42557699     4.49622700    -0.32009603    -1.59606764     0.83765415
Ti      5.90785399     4.63432300     0.02312901    -0.49897623     0.91618981    -0.60115268
Ti      5.93141201     9.10444500     4.44150399     0.99487023     1.12277906     1.26925871
O       4.31532898     5.60471798     0.92936501     0.32762243    -0.86775484    -0.24900475
O       4.72976901     1.14531700     0.87208099    -1.49536212    -1.91177172    -1.13890014
O       1.39600202     5.48450298     0.90458199     0.64208800     0.56159830     1.07918907
O       1.39996001     1.06548601     1.00146302     1.62268448    -0.79028953    -1.47000641
O       4.39139498     8.32463999     3.68459801    -0.30794705     0.54335889     0.65172373
O       4.41055702     3.42727700     4.06628202     0.22113964     1.27086900    -0.52487831
O       1.69997599     8.39269499     3.53134298    -1.10466460     0.24934902     1.46023930
O       1.69962499     3.91603500     3.74817701    -1.97560426    -1.45781989    -1.08597550
O       3.25885501     1.22572702     2.90453999    -2.31748963    -0.31829575     2.12356179
O       5.82123699     6.00456002     3.35814200    -0.13249568     0.36730793    -0.85111182
O       0.08416199     1.37384902     3.37262003     0.33023416     0.85996079    -1.43707185
O       2.75689901     7.59054800     1.28742501     1.51143487     0.55786737     1.25715730
O       2.94864898     3.27440499     1.67747601     1.07993212     0.31791471    -0.41487773
O       5.81358101     7.74036300     1.32906502     0.49479793     0.64849391     0.31473143
O       0.05927902     3.46126198     1.61542802     0.47107358    -0.82129216     0.58098366
