# total energy = -39028.64599260 eV

CRYSTAL
PRIMVEC
        5.93200024     0.00000000     0.00000000
        0.00000000     9.29399984     0.00000000
        0.00000000     0.00000000     9.29399984
PRIMCOORD
46 1
Ti      4.54596098     7.11832499     7.06850401    -1.57050496    -0.61013072    -1.07401112
Ti      4.54798699     6.85960600     2.39647501    -0.86167443     0.23241727     0.12585092
Ti      4.60329099     2.16513300     7.01624998    -1.78445399     1.27966834    -1.54859658
Ti      4.04214201     2.70196401     2.11666301     1.38190753    -0.94596320     0.86594092
Ti      1.56932398     7.13866000     7.23427201    -0.44745799    -0.59360623    -2.20076588
Ti      1.45273702     7.09320002     2.11057700     1.51050901     0.87448033    -0.40308408
Ti      1.61754801     2.17297001     6.99048201     2.02221632     1.92103746    -1.70753323
Ti      1.08303400     2.14057500     2.41818498    -0.48146521    -0.08625463    -1.00574985
Ti      2.81277701     4.68206998     4.65005798     2.76535489     0.69413563     0.01001162
Ti      2.99745198     4.72288600     9.00920098     0.40246393    -0.90984356    -0.71511790
Ti      2.91647098     0.10834200     4.47932598     1.12352005    -0.60441618     1.50458622
Ti      2.85787201     9.22230399     0.10777399     2.15719286     2.87813971     2.18222976
Ti      5.92844899     4.48856600     4.67811401    -1.64737531     0.00139842     0.51583393
Ti      0.07509401     4.70968901     0.06942398    -2.20845374    -2.21645784    -0.97719388
Ti      0.01261903     9.01821102     4.85284701    -0.59685354     0.54190853    -0.32038631
Ti      5.88450399     0.11883300     9.16378900    -2.12695745     0.99848931     3.69670676
O       4.55875199     5.54327902     5.33446499    -1.18820543     0.55736884     1.05642220
O       4.48216502     5.70703599     0.78131597    -0.40227881    -0.86911701     0.72140811
O       4.52404299     0.58115299     5.87808899     1.15762986     2.00149014    -1.21001173
O       4.55130599     1.12102401     1.11879998    -1.38508515    -1.54448872    -1.50096842
O       1.39223100     5.41193299     5.56508498     1.22283409     0.15119095    -0.54528182
O       1.45515700     5.56395900     0.63829699     3.32534085     2.23541022     2.00310351
O       1.52731900     0.57266599     5.90436899    -0.02049658     0.33384887    -2.03128332
O       1.37933199     1.17695900     0.86243901     1.15823741    -2.01635241    -0.53966755
O       4.14002298     8.55482902     8.28692298     2.70989977    -0.63752069     0.48064503
O       4.54272099     8.24271202     3.85863298     0.00528670     0.63221110    -0.52057299
O       4.57618299     3.94464597     8.22814198    -1.57250167    -1.28595289     0.09664472
O       4.41557600     3.73702497     3.83780800    -0.22554265    -0.33752504    -2.57026542
O       1.43469298     8.27908100     8.72326598    -0.09800920    -0.84920509    -1.30267433
O       1.59039597     8.31104098     3.64002102    -0.34920942     1.76298244     0.87672902
O       1.55291599     3.60105701     8.51284198     0.94097191     0.80513765    -0.14477142
O       1.22658497     3.62169100     3.35881099     1.70180430     1.34038085     2.40652697
O       3.00614801     6.13367901     7.74813900     0.39829231    -1.09444729     0.69092664
O       2.89369900     5.97913798     3.23240398     1.32389930     0.23492847    -0.87508583
O       2.99413600     1.44682500     7.95005399     1.18328151    -0.10326248     0.76158495
O       3.36028300     1.65869799     3.49165400    -2.24885967    -2.23796718    -0.33081060
O       0.18974301     5.97822800     7.84433998    -0.44842344     1.33853866    -0.29109218
O       0.42304498     5.99832102     2.89436201    -3.83223891    -0.95879583     1.81275130
O       0.18365800     1.56048100     7.94227598    -2.36243588    -1.65642303     1.07546971
O       3.19804101     7.96927000     6.06216102    -1.35537450    -1.83869863     0.40899402
O       3.25244202     7.92523298     1.49376800    -1.26494851     0.33749881    -0.49004113
O       3.00176800     3.04768599     5.93163998    -0.00880989     0.26681864     0.63605285
O       0.07251199     7.71348397     6.07914401     1.07880469    -0.15780846     0.20852194
O       5.87319500     8.09974098     1.45188801     0.44544096    -1.03069985    -0.00426803
O       0.12791701     3.15438997     6.03812298    -0.75825383    -0.73873632    -0.06084286
O       5.67043899     3.11300800     1.35638501     1.23098269     1.90419287     0.23313538
