# total energy = -19959.26348291 eV

CRYSTAL
PRIMVEC
        7.60600008     0.00000000     0.00000000
        0.00000000     7.60600008     0.00000000
       -1.89786986    -1.89786986     4.85670466
PRIMCOORD
24 1
Ti      3.80861001     6.72712901     1.26256702     1.17352674     0.91867118     0.15446345
Ti      3.89040203     2.94770001     1.19583703    -0.90254239    -0.80153477     0.48862805
Ti      0.12912502     6.50736599     1.16552999    -1.91359309     2.03182171     0.83810281
Ti      0.03749798     2.81112100     1.31466600     1.02344573    -1.38145681    -3.21042921
Ti      5.75954122     2.58283520     3.62667580    -1.34603137     0.99778226    -0.08371592
Ti      5.63040922    -1.05217080     3.66212179     0.21298744    -1.09853869    -0.36843125
Ti      1.91069723     2.93658824     3.58581781     1.65745070     0.95050531     0.02706807
Ti      1.82822220    -0.74160477     3.62853681    -0.30787583    -1.22813108     1.09127326
O       3.67506202     4.87880099     0.90674998    -0.10995352    -0.35584261    -1.50096610
O       3.65542600     1.10006198     0.92808498     1.06194288    -0.26705236    -1.17809842
O       0.01107499     4.67914199     0.78735801     0.70080456    -1.63696748    -0.13599418
O      -0.16464398     0.82070899     0.78173498     0.81647828    -0.17637311    -0.44996765
O       5.53090124     4.52596221     4.08036380     1.12672184     0.83222501    -0.57467982
O       5.52670921     0.76208922     4.06114080     1.08593076     3.11602701     0.12042537
O       1.93035521     5.02281224     3.91645982    -0.29372808    -2.46696823     1.30187137
O       1.84399422     1.10389121     3.92924983     0.60870479     0.68484032     2.03922855
O       3.75667920     2.86218824     3.20679784     1.43069628    -0.10723690    -0.29042189
O       3.81330122    -0.70839778     3.21983084    -0.56050404    -0.74111588    -0.40536156
O       0.09818423     2.66464823     3.08937483    -1.73538215     0.48127547     2.80226797
O      -0.03199279    -0.77527976     3.12952981    -0.92877871    -0.71436997     0.98254692
O       5.65958001     6.42168700     1.68306698    -0.25618918     0.36269537    -0.49430531
O       5.83719502     2.69541698     1.55764303    -2.64085997     0.64581482     1.14004248
O       1.84776498    -0.66648102     1.79689300     0.99207338    -0.89720761    -2.80840828
O       1.98060800     2.80132302     1.54971299    -0.89532504     0.85113676     0.51486129
