# total energy = -19915.93602508 eV

CRYSTAL
PRIMVEC
        6.41308324     0.00000000     0.00000000
        2.62520694     6.30041182     0.00000000
        0.00000000     0.00000000    11.72406542
PRIMCOORD
24 1
Ti      3.88012948     3.73361833     4.34954465    -0.08168655    -2.28570693     0.59429786
Ti      5.15816081     2.56679367     7.37452090     0.08168655     2.28570693    -0.59429786
Ti      6.60038275     2.56679581     1.51244125    -0.41651295    -1.09919997     0.23551931
Ti      2.43790759     3.73361644    10.21162435     0.41651295     1.09919997    -0.23551931
Ti      2.56752613     0.58341239     1.51248825    -0.08168655    -2.28570693    -0.59429786
Ti      6.47076419     5.71699979    10.21157735     0.08168655     2.28570693     0.59429786
Ti      1.12530409     0.58341007     7.37447383     0.41651295     1.09919997     0.23551931
Ti      7.91298623     5.71700211     4.34959165    -0.41651295    -1.09919997    -0.23551931
O       2.95416131     2.21848217     5.98270086     1.83185563     2.10852597    -0.82921476
O       6.08412891     4.08192984     5.74136468    -1.83185563    -2.10852597     0.82921476
O       2.10118840     2.21850763     0.12070583    -0.19859362    -0.76693953     1.56636805
O       6.93710197     4.08190448    11.60335933     0.19859362     0.76693953    -1.56636805
O       4.77152554     0.93172378     0.12066777    -1.83185563    -2.10852597    -0.82921476
O       4.26676475     5.36868822    11.60339739     1.83185563     2.10852597     0.82921476
O       5.62449853     0.93169837     5.98273886     0.19859362     0.76693953     1.56636805
O       3.41379165     5.36871372     5.74132662    -0.19859362    -0.76693953    -1.56636805
O       1.82980185     3.83226781     3.16696258     0.62734066     2.67172376     2.53920108
O       7.20848837     2.46814420     8.55710296    -0.62734066    -2.67172376    -2.53920108
O       4.46793932     2.46808557     2.69510748     0.70352273     2.04781038     1.48382789
O       4.57035090     3.83232644     9.02895787    -0.70352273    -2.04781038    -1.48382789
O       0.51719847     0.68206168     2.69507000     0.62734066     2.67172376    -2.53920108
O       8.52109182     5.61835032     9.02899529    -0.62734066    -2.67172376     2.53920108
O       3.25774753     0.68212038     8.55714032    -0.70352273    -2.04781038     1.48382789
O       5.78054269     5.61829163     3.16692516     0.70352273     2.04781038    -1.48382789
