# total energy = -4982.32835546 eV

CRYSTAL
PRIMVEC
        4.13307122     0.00000000     0.00000000
       -0.00000709     3.05487890     0.00000000
       -2.06656091    -1.52747941     4.69228829
PRIMCOORD
6 1
Ti     -0.00017849     2.29127167     1.17307180    -0.00484370    -0.00985864    12.24763314
Ti      2.06668151    -0.76387218     3.51921580     0.00484370     0.00985864   -12.24763314
O       0.00004311     0.76371249     0.76433529     0.00432768     0.00985144    -4.34007491
O       2.06645977     0.76368695     3.92795230    -0.00432768    -0.00985144     4.34007491
O      -0.00001850    -0.76370956     3.11047929    -0.00115031    -0.00019026     0.56709404
O       2.06652133     2.29110890     1.58180836     0.00115031     0.00019026    -0.56709404
