# total energy = -19518.30391457 eV

CRYSTAL
PRIMVEC
        5.93400000     0.00000000     0.00000000
        0.00000000     9.29699974     0.00000000
        0.00000000     0.00000000     4.64899994
PRIMCOORD
23 1
Ti      4.46181799     7.08315301     2.16484503     1.51283792    -0.20436935     0.57667680
Ti      4.53108401     2.28370501     2.32433000    -0.39418883    -0.11430718     0.30271691
Ti      1.48856301     7.08522098     2.29633398    -1.92509981    -0.52328936    -0.12074162
Ti      1.47179598     2.28037199     2.32714401     0.20474062    -0.30732742     0.41417351
Ti      2.95918299     4.48349002     0.26701501    -0.51321269    -0.27202410    -0.62036423
Ti      2.97617699     9.27333399     4.49112102    -0.27608619    -0.00239370     0.60325019
Ti      5.90629498     4.66832698     0.04474199     0.72832900     0.15507229    -1.41994264
Ti      5.90165399     0.05941602     4.62986601     0.39099140    -0.31818262     0.67924586
O       4.45296502     5.49681699     0.96150099    -0.64212168     0.66302810     0.11874542
O       4.44017501     0.88180202     0.93226299    -0.08084657     0.03386273     0.04808453
O       1.52866099     5.56960802     0.99865299     0.12055573    -0.31150572    -0.43424997
O       1.50883299     0.92407202     0.99502802    -0.33760165    -0.44581197    -0.66305818
O       4.47020402     8.37267298     3.60542399    -0.14758498     0.27794021     0.46905552
O       4.38608902     3.67174599     3.84773801     0.32332946     0.60331035    -0.24553607
O       1.41434299     8.45111002     3.60309497     0.39350311    -0.11680732     0.54286498
O       1.47231600     3.82440198     3.76315897     0.45285011    -0.11657617     0.22106405
O       2.93272800     1.35551801     3.26789998     0.34982417     0.56985026    -0.27427176
O       5.91963898     6.11794201     3.18076798    -0.14242246    -0.36474634     0.57785822
O       5.88808599     1.45961400     3.33669598     0.56196854     0.18532827    -0.41372459
O       2.94086399     7.90923500     1.34902098     0.23262579    -0.61161168     0.03363801
O       3.01791299     3.24604802     1.58756101    -0.56465766    -0.01754290    -0.34439065
O       0.00037497     7.76462298     1.25966898     0.16156844     0.99644708    -0.33304669
O       0.03941402     3.17924998     1.39875300    -0.40930152     0.24165679     0.28195293
