# total energy = -4981.93243618 eV

CRYSTAL
PRIMVEC
        3.54534114     0.00000000     0.00000000
        0.00000000     5.55501805     0.00000000
        0.00000000    -0.00007209     5.55501805
PRIMCOORD
6 1
Ti      1.77267051     2.77747292     2.77750896     0.00000000     0.00000000     0.00000000
Ti      0.00000000     0.00000000     0.00000000     0.00000000     0.00000000     0.00000000
O       1.77267051     1.08257714     1.08259119     0.00000000    -0.94074257    -0.94074257
O       1.77267051     4.47236870     4.47242674    -0.00000000     0.94074257     0.94074257
O       0.00000000     1.69486656     3.86010128     0.00000000     0.94118351    -0.94118351
O       0.00000000     3.86007928     1.69491665     0.00000000    -0.94118351     0.94118351
