# total energy = -4952.16413430 eV

CRYSTAL
PRIMVEC
        5.77698202     0.00000000     0.00000000
       -0.00000755     2.47584960     0.00000000
       -2.88852415    -1.23801437     6.26931445
PRIMCOORD
6 1
Ti     -0.00024685     1.85696408     1.56732856    -0.02024025    -0.01670472    37.88159953
Ti      2.88869689    -0.61912879     4.70198578     0.02024025     0.01670472   -37.88159953
O       0.00006138     0.61894723     1.02122009     0.01875800     0.01689138   -32.61439322
O       2.88838849     0.61888801     5.24809431    -0.01875800    -0.01689138    32.61439322
O      -0.00002415    -0.61899204     4.15587731    -0.00157969    -0.00007173    -1.50295485
O       2.88847396     1.85682722     2.11343708     0.00157969     0.00007173     1.50295485
