# total energy = -19518.48014360 eV

CRYSTAL
PRIMVEC
        5.93400000     0.00000000     0.00000000
        0.00000000     9.29699974     0.00000000
        0.00000000     0.00000000     4.64899994
PRIMCOORD
23 1
Ti      4.47251700     7.04916501     2.22573602     0.55558835     0.28204601     0.62258129
Ti      4.43646903     2.26915401     2.32782199     0.64401736    -0.35425032    -0.13535115
Ti      1.42029602     7.05490997     2.22495199    -0.68814985    -0.17200147     0.12026031
Ti      1.49284199     2.29690999     2.35997400    -0.85116247    -0.30873201     0.02478236
Ti      3.01301699     4.53848397     0.16248901    -0.39240217    -0.68806294    -0.04525375
Ti      2.95947499     9.24657100     4.59162099     0.40689034     0.31986001     0.14281969
Ti      0.02181501     4.63612898     4.64097899     0.24935108    -0.59867157    -0.52591163
Ti      0.02490398     0.06830302     0.00681099    -0.60889119     0.63826040     0.37820144
O       4.47197100     5.53430698     0.94126498    -0.33241857     0.49068854    -0.26160830
O       4.35758299     0.90499401     0.93490602     0.40760871     0.18263632    -0.13750548
O       1.56108998     5.60239198     0.87211401    -0.14329123     0.63004829     0.26590642
O       1.51114501     0.89849598     0.96124201    -0.36078299     0.14573738    -0.28992207
O       4.47863699     8.34384002     3.71221497    -0.54763206    -0.04444256     0.48332952
O       4.45358198     3.68312801     3.75260797    -0.09872680     0.83584358     0.10010825
O       1.36659199     8.38528502     3.85867102     0.92541982    -1.07389002    -1.30712311
O       1.52865999     3.80721801     3.68787600     0.11548654     0.22617694     0.29656092
O       2.96618200     1.31641900     3.21596499     0.01700168     0.59738164     0.01888425
O       5.91979900     6.10364597     3.12339500     0.06385414    -0.57572678     0.64881787
O       5.92281801     1.42618402     3.29666801    -0.08052158     0.24821439    -0.39327249
O       2.91830299     8.00942101     1.47027501     0.15115213    -1.40924865     0.47263990
O       2.90928999     3.21045101     1.43212599     0.68881473     0.20636273    -0.03895737
O       5.88475800     7.97165299     1.45566898     0.31532124     0.07385317    -0.31301984
O       0.05800301     3.19873201     1.38723001    -0.43652694     0.34791770    -0.12696729
