# total energy = -4990.21797635 eV

CRYSTAL
PRIMVEC
        3.69020632     0.00000000     0.00000000
        0.18438718     3.68559683     0.00000000
       -1.93732951    -1.84282958     4.71099736
PRIMCOORD
6 1
Ti      0.13814131     2.76433758     1.17774921     0.00188153    -0.00188153    -0.00000000
Ti      1.79912220    -0.92157077     3.53324789    -0.00188153     0.00188153     0.00000000
O       0.04613561     0.92139318     0.76738295    -0.00007148     0.00058724     0.51631550
O       1.89112774     0.92137353     3.94361421     0.00007148    -0.00058724    -0.51631550
O      -0.04611741    -0.92137587     3.12288163     0.00058724    -0.00007148     0.51631550
O       1.98338077     2.76414252     1.58811558    -0.00058724     0.00007148    -0.51631550
