# total energy = -19519.22324043 eV

CRYSTAL
PRIMVEC
        7.60600008     0.00000000     0.00000000
        0.00000000     7.60600008     0.00000000
       -1.89786986    -1.89786986     4.85670466
PRIMCOORD
23 1
Ti      3.79830100     6.67353500     1.23289002     1.22876999    -0.56520582    -0.49887107
Ti      3.70478199     2.78068198     1.08937799     0.37808446     0.78568057     1.15193846
Ti      0.07122900     6.61115400     1.23303702    -1.53355459     0.97030255     0.50398809
Ti      0.04742698     2.88983998     1.11230798    -0.60084621    -1.61873990    -0.36516903
Ti      5.53400524     2.92067720     3.65218580     0.40010262    -0.96662639    -0.37545679
Ti      5.67082222    -1.00445875     3.62059481     1.13241504     0.95029422     0.15498873
Ti      1.99762221     2.89127521     3.71269780    -0.70630698    -0.21888786     0.51193845
Ti      1.97590425    -0.97731878     3.58850582    -1.32849052     0.19780944     0.69722147
O       3.75003199     4.73817102     0.87033798    -0.27174539    -0.10354710    -0.30215821
O       3.99027799     0.92841698     0.82250300    -0.23726869     0.70134115    -0.55863459
O       0.08534502     4.69586198     0.78045601     0.58034988     2.15174546     0.08919674
O      -0.08465899     0.96735898     0.80000001     0.27363027    -0.78788143    -0.23447724
O       5.54105224     4.76991721     4.07785280     0.55354457    -0.49478173     0.08452736
O       5.76529221     0.97716320     4.03098384     0.19489381    -0.20439352    -0.35671704
O       1.82427020     4.74613223     4.09101079     0.00888034     0.28591372    -0.60383794
O       1.75114521     0.99271123     4.04085781    -0.13915073    -0.88261248     0.31841916
O       3.76311923     2.77810621     3.41736683     0.37163742    -0.04061753    -1.24976512
O       3.81949323    -0.86769278     3.17243783    -0.59042835    -0.05622105     0.80761928
O       0.01423323    -1.06880776     3.18316081     0.11668416     0.15698699     0.23164311
O       5.69449602     6.51149299     1.64571299     0.34791101     0.20475270    -0.18460682
O       5.84278202     2.94861501     1.75140302    -0.29364606    -0.04317912     0.26364539
O       1.92089601     6.84504600     1.64800401    -0.08499299    -0.44720757    -0.22697604
O       1.87748199     2.78465901     1.67637802     0.19952796     0.02507469     0.14154391
