# total energy = -4979.45458264 eV

CRYSTAL
PRIMVEC
        4.44968361     0.00000000     0.00000000
       -0.00000722     2.96645540     0.00000000
       -2.22486803    -1.48327297     4.92950167
PRIMCOORD
6 1
Ti     -0.00019124     2.22494931     1.23237516    -0.00743460    -0.01099018    15.28318948
Ti      2.22499965    -0.74176719     3.69712584     0.00743460     0.01099018   -15.28318948
O       0.00004683     0.74160579     0.80297542     0.00598887     0.01140696    -7.37133056
O       2.22476149     0.74157628     4.12652563    -0.00598887    -0.01140696     7.37133056
O      -0.00001907    -0.74160853     3.26772615    -0.00182960    -0.00004448    -0.78300970
O       2.22482733     2.22479055     1.66177495     0.00182960     0.00004448     0.78300970
