# total energy = -19517.41154894 eV

CRYSTAL
PRIMVEC
        7.60600008     0.00000000     0.00000000
        0.00000000     7.60600008     0.00000000
       -1.89786986    -1.89786986     4.85670466
PRIMCOORD
23 1
Ti      3.73116799     6.75193801     1.19717902     0.77534499     0.52030097    -0.51188292
Ti      3.79097602     2.92674702     1.22904602     0.79882559    -0.21096938     0.10755957
Ti      0.03086500     6.54147199     1.23972302    -0.30413411     1.31531979    -1.68411099
Ti     -0.00534501     2.78434500     1.22878402     0.30683145    -2.21699237     0.12808881
Ti      5.70273822     2.75657923     3.66574083    -1.22789196     1.14317640     0.49216332
Ti      5.64344624    -0.96226776     3.49334181    -0.44847075    -0.73359103     2.55240782
Ti      1.97328921     2.89851023     3.66363883     0.30647098     1.22815113     0.87872651
Ti      1.81814323    -0.85443176     3.62969682     1.32068748    -1.11780371    -0.47476003
O       3.98832299     4.99644698     0.84803602    -0.58337221    -3.90749050    -0.28627856
O       3.97306502     0.97461702     0.58323302    -0.28199536     1.02627395     2.40410910
O      -0.12631001     4.54742300     0.86922502     0.77153847     3.64014787     0.62887433
O      -0.01119803     0.89462298     0.74430802     0.21785839    -0.33923328     0.00647867
O       5.65598821     4.69740421     3.99587383     0.49189078    -0.21863487     0.38180073
O       5.64533625     0.99375222     4.16229779     0.60538755    -2.38229380    -1.76284951
O       1.80795524     4.83858225     3.98554381    -0.20938969    -1.15408662    -0.63809816
O       1.98539520     0.98486824     4.07892380    -1.10261929     1.32598447     0.90771648
O       3.74117621     2.73001220     3.47109981     1.70490094     0.71475820    -1.81703887
O       3.73505622    -0.98455777     3.14684682     0.76442628     0.54967403    -0.00603927
O       0.02470025    -0.91370977     3.19607882    -0.43186270     0.07947180    -0.18426383
O       5.77418498     6.71650297     1.67130802    -0.49802158     0.08427616    -0.83050854
O       5.79078898     2.62960601     1.80464900    -0.66938156     0.46389403    -0.38236843
O       1.93192898     6.74823498     1.41529599    -1.46913018    -0.23867894     0.82396354
O       1.98237100     2.72129200     1.71994301    -0.83789378     0.42834620    -0.73368976
