# total energy = -78963.41014759 eV

CRYSTAL
PRIMVEC
       10.35150501     0.00000000     0.00000000
        0.00005674    11.01713167     0.00000000
        0.00000000     0.00000000     9.26345890
PRIMCOORD
94 1
Ti      7.20239254     8.79511955     3.56630922     0.00524762    -0.00807712    -0.01251896
Ti      7.02900498     3.29143854     3.47174699    -0.01282235    -0.00982393    -0.00837511
Ti      1.87937581     8.75722717     3.40639825    -0.02041611     0.01006022    -0.00538929
Ti      1.87315745     3.27796351     3.43549026    -0.00973909     0.00203529    -0.00800282
Ti      8.51138367     7.68724148     5.91807734     0.00072814     0.00072685     0.00075231
Ti      8.49921491     2.23585101     5.82905300     0.01376029     0.00402018    -0.01440153
Ti      3.29674894     7.77509872     5.78518996    -0.00146424     0.00246492    -0.00320360
Ti      3.39996752     2.04599656     5.68786100     0.00265004    -0.00998977    -0.00877646
Ti      9.61583188     7.74435886     1.19728930    -0.01396675     0.00431328    -0.01414107
Ti      9.60367893     2.17908552     1.28633948    -0.00061038     0.00022214     0.00122127
Ti      4.36383866     7.55446698     1.05597764    -0.00284750    -0.01027593    -0.00895490
Ti      4.46681372     2.26645912     1.15348697     0.00172675     0.00247315    -0.00332315
Ti      5.89095656     8.78656729     8.06716251     0.01017746     0.00189285    -0.00777888
Ti      5.88417406     3.24875945     8.03836361     0.02067425     0.01031733    -0.00519646
Ti      0.73467381     8.79989888     8.10339179     0.01301364    -0.00993809    -0.00819437
Ti      0.56140139     3.28649466     8.19765031    -0.00649204    -0.00778890    -0.01233127
Ti      7.03946632     6.04431404     1.20100636     0.00293774    -0.00583589     0.00621487
Ti      7.05259975     0.46931118     1.20842679     0.00870627    -0.00986147     0.00916264
Ti      1.85104191     5.96656198     1.14723568     0.00278425     0.01231945    -0.01484993
Ti      1.89446241     0.54162543     1.20284309     0.02250436     0.01676591    -0.02351352
Ti      8.48856041    10.51983983     8.05709348    -0.00027922    -0.00639536     0.01010135
Ti      8.44048770     4.98198367     8.09342243     0.00170670     0.00076516     0.00808689
Ti      3.32526614    10.48063167     8.10507083     0.00505299    -0.02494897    -0.00327173
Ti      3.30631396     4.98080929     7.99542623     0.00220241     0.00752356     0.00666045
Ti      5.86889932     6.05007648     5.83492886    -0.02262829     0.01664738    -0.02332531
Ti      5.91290819     0.45786329     5.77895169    -0.00325322     0.01253645    -0.01475531
Ti      0.71136027     5.97792705     5.83985844    -0.00840314    -0.00988384     0.00903049
Ti      0.72454779     0.53575459     5.83289257    -0.00267858    -0.00597010     0.00629895
Ti      9.67515199    10.49080404     3.46178350    -0.00186456     0.00040855     0.00828564
Ti      9.62656220     5.01125351     3.42522124     0.00026765    -0.00642185     0.01015046
Ti      4.45658457    10.48966321     3.36367826    -0.00224637     0.00750505     0.00648355
Ti      4.43847791     4.97223956     3.47330124    -0.00493549    -0.02467874    -0.00339926
O       6.81552104     7.44018025     4.73242332    -0.00913359     0.00718444    -0.00471155
O       6.78982469     1.93916795     4.72134023     0.02111159    -0.00225152     0.00251171
O       1.64919689     7.46951262     4.75630389     0.00666893     0.00581969    -0.01478282
O       1.63860107     1.95995868     4.73197243     0.00303390     0.00334526     0.01003939
O       8.76386409     9.08394926     4.58585950     0.00238984    -0.00865742     0.00535098
O       8.68847524     3.57741870     4.53614688     0.01734004     0.00992729     0.00233276
O       3.64249133     9.02643870     4.46600195    -0.01437453    -0.00469304    -0.01005507
O       3.50940986     3.60827194     4.57849169    -0.01513223     0.00507485     0.00205740
O       6.12517424     7.46850061     0.10014727    -0.00282487     0.00337946     0.00992343
O       6.11438488     1.96101339     0.12466129    -0.00654269     0.00580350    -0.01475839
O       0.97390232     7.44774590     0.08952244    -0.02097738    -0.00222169     0.00275622
O       0.94810813     1.93161582     0.10059604     0.00877029     0.00729242    -0.00475449
O       9.42675094     9.08601811     9.16785904    -0.01740843     0.00980208     0.00240347
O       9.35141384     3.57554848     9.21755045    -0.00319125    -0.00876078     0.00566594
O       4.25433678     9.11679538     9.21018430     0.01518417     0.00494578     0.00199363
O       4.12101394     3.51776349     9.09778388     0.01448560    -0.00485707    -0.01005919
O       8.69768451     6.32715668     0.11158788     0.00873790     0.00652726     0.01168773
O       8.71074621     0.82201792     0.10200850     0.01372250     0.00410914     0.00493909
O       3.49495455     6.32408895     0.03494645     0.00765263     0.01254339     0.03022539
O       3.54026951     0.81591391     0.11007863    -0.00046254    -0.00533813    -0.00153906
O       6.81849483    10.20036942     9.16240295     0.00671444     0.00056847     0.00263384
O       6.74899753     4.73213339     9.18594001    -0.00040495     0.00362809    -0.00023551
O       1.65032641    10.21219446     9.16650543     0.00767320    -0.00759658    -0.00770483
O       1.56307123     4.64545887     9.12253967    -0.00857540    -0.00269246    -0.00891299
O       9.40434763     6.33045954     4.73373443    -0.01361348     0.00380626     0.00486813
O       9.41758104     0.81858571     4.74336845    -0.00862014     0.00638457     0.01149952
O       4.22325817     6.32449850     4.74179298     0.00066900    -0.00524042    -0.00142773
O       4.26869599     0.81560446     4.66677407    -0.00775934     0.01270125     0.02982095
O       6.20036944    10.15397391     4.49047715     0.00844222    -0.00245309    -0.00849210
O       6.11334746     4.70368635     4.53481590    -0.00752305    -0.00769609    -0.00756702
O       1.01477056    10.24071343     4.55418688     0.00039981     0.00337920    -0.00024425
O       0.94530895     4.69183549     4.53058451    -0.00664425     0.00054353     0.00250606
O       5.34598448     3.39267214     2.48356994     0.00207462    -0.00375587     0.00702811
O       0.19024829     8.86181714     2.51654063     0.00523117    -0.00415670    -0.01083540
O       0.17476752     3.36042575     2.51011742     0.01545799    -0.00413691     0.01092051
O      10.17470029     7.66918399     6.78431309     0.01353686     0.00421430     0.01126529
O      10.17798301     2.20495546     6.73991310     0.00427883     0.00457297     0.01836283
O       4.98811946     7.65282892     6.78401926    -0.00060524     0.00344399    -0.00370368
O       4.96637648     2.17689270     6.78564434    -0.01058601    -0.01273031    -0.01425574
O       7.93723845     7.71355233     2.10824378    -0.00447166     0.00468018     0.01835203
O       7.94039658     2.16066064     2.15260175    -0.01335714     0.00423718     0.01119690
O       2.79735729     7.68534631     2.15388425     0.01087834    -0.01264212    -0.01420741
O       2.77554303     2.14413296     2.15241412     0.00074639     0.00352833    -0.00381398
O       7.58898010     8.86903422     7.14180823    -0.01521631    -0.00430326     0.01079864
O       7.57345710     3.35329569     7.14827834    -0.00524762    -0.00425672    -0.01066468
O       2.41769685     8.90132311     7.11520072    -0.00208645    -0.00369750     0.00708082
O       5.33714603     6.24456777     2.17101376     0.00827638    -0.01223486    -0.00140459
O       5.35825519     0.54621492     2.10094740     0.00475346     0.01255290    -0.00056564
O       0.17026037     6.10585007     2.11847620    -0.00682988     0.00710268     0.00099785
O       0.19932530     0.62636626     2.14738302     0.00971106     0.00173524     0.00673629
O      10.18031324    10.44669242     7.14007636     0.01233513     0.00297091    -0.00188616
O      10.08685904     4.93508449     7.12592527    -0.01073590    -0.00152209    -0.00000668
O       4.98140748    10.40872262     7.09531747     0.00985273     0.00105081     0.01065414
O       4.98681373     4.88408602     7.10266931     0.00506687    -0.00785164     0.00339077
O       7.56419939     6.13482671     6.77916170    -0.00957685     0.00170850     0.00682011
O       7.59344291     0.59726830     6.75018989     0.00689827     0.00685354     0.00112512
O       2.40541451     6.05504269     6.73272648    -0.00482648     0.01262618    -0.00062324
O       2.42662472     0.73598276     6.80283565    -0.00802776    -0.01210064    -0.00138891
O       8.02849598    10.44365123     2.49425813     0.01038623    -0.00147093     0.00006068
O       7.93491136     4.93800917     2.50829445    -0.01220452     0.00294494    -0.00177689
O       2.77652449    10.39261558     2.47082409    -0.00526125    -0.00801105     0.00322442
O       2.78244023     4.90008537     2.46358989    -0.00975348     0.00123284     0.01040192
