# total energy = -39031.95223641 eV

CRYSTAL
PRIMVEC
        7.60600008     0.00000000     0.00000000
        0.00000000     7.60600008     0.00000000
       -3.79573973    -3.79573973     9.71340985
PRIMCOORD
46 1
Ti      1.83791043     4.75839845     6.27976362    -0.05041241     1.37969998     0.62325621
Ti      3.93418499     6.78622599     1.28144700     2.86650547     1.67877544     0.53613537
Ti      1.62887547     0.84428643     5.96604264     0.23724400     0.21593855    -0.17039041
Ti      3.73964699     3.00006300     1.19419901     0.67186704    -1.63919149    -0.94031988
Ti     -2.12154457     4.68297043     6.23419061     1.59289953     2.16306475    -1.16463560
Ti      0.25608199     6.53495798     1.24556302    -1.38779330     1.38964064     0.21126865
Ti     -2.14293354     1.04190545     5.96270760     0.38050695    -1.51895843    -2.73161557
Ti     -0.10144000     2.91500400     1.06058498     0.53677840    -1.14906988     2.35698822
Ti      3.54516843     0.95825644     8.27245464    -0.80231458     0.56168366     1.03372629
Ti      5.76656700     2.85202100     3.54062301     1.98377909     0.62662924     0.58473232
Ti      3.81833946    -2.87867757     8.65866164     1.43848467    -0.50852326     1.04508466
Ti      5.89862302    -0.98869001     3.65331998     0.29668227     0.42746406    -1.24049654
Ti     -0.34861054     1.03187045     8.37590160     1.38011341    -1.92718652     0.00382683
Ti      2.00430498     2.96250999     3.54950800    -1.70521050    -2.82589770    -0.63066896
Ti      0.13978947    -3.03487656     8.60966364    -1.52491825     2.64925154     0.42898101
Ti      2.13739401    -1.10036699     3.79789602     0.41265784     1.25467155    -0.75870968
O       2.24821743    -0.88666056     5.69134562    -0.92197274    -1.29596940    -0.53361235
O       3.80141701     1.10783702     0.76514501     0.03517887    -2.02027591    -0.69949279
O      -1.70691752     2.90087444     5.49010861    -1.11544729    -0.53128550     0.76502509
O      -0.00103100     4.70330501     0.67634001    -0.00225512     1.63626711    -0.16430847
O      -2.07800154    -1.05504757     5.60982861    -0.10234743     0.67886225     1.37167710
O       0.13916197     0.80738102     1.01537499     0.38558694     0.66745297    -1.82928941
O       3.96440344     2.90456746     8.67965664    -0.69604391    -1.67245360     1.19866674
O       5.56689302     4.93712500     4.00223999    -0.28515859    -5.49820793    -0.10384792
O       3.93126044    -0.91253653     8.95362462    -0.78918061    -0.11194536    -1.48328128
O      -1.41407200     0.68679301     4.11419003    -0.40433955     4.56451379     0.96486184
O      -0.08996056     2.81885143     9.02430963    -0.27360610    -1.36951146    -1.10685775
O       1.96453498     4.60692803     4.41810901     0.66181994     0.10227081    -2.24745173
O      -0.21413454    -0.76818656     9.04008361    -0.24675940     1.27251347    -0.23653644
O       1.66694099     1.14354802     4.12970402     0.54861088     0.29218696    -0.33416717
O       1.66803644     0.69107443     7.90097465     1.41705761     1.07819920     1.86645112
O       4.08836898     2.37156399     3.11814202    -3.57831590     1.47990336     1.00320035
O       1.96503246    -2.77302855     8.29493965    -1.65120163    -0.31094753     0.05866643
O       4.10421900    -0.58596601     3.22668601    -2.45991363    -0.74960772    -0.10885926
O      -2.21987057     1.02472544     7.75547964     1.55374213    -0.25723074     2.34802715
O       0.01603402     2.98234598     3.14614100     0.57666626     0.54735027    -0.09306960
O      -1.96155555    -2.64353956     8.07270960     1.32420347    -0.89419582     0.46349294
O       0.32231202    -1.02258302     3.17242201    -0.25961055    -0.91860151     0.05494578
O       3.72751947     4.80023346     6.72986264    -0.36013352    -0.87531054    -1.75391081
O       5.87512702     6.66715201     1.35431900     0.30099556    -0.85341579     1.15809986
O       3.47949843     1.29206346     6.28857363     1.45794973     0.23420496     0.34740296
O       5.70358199     2.64383802     1.52408102     0.81012740     1.48731457    -0.67924868
O       0.02683543     4.71421744     6.60217264     0.38539231    -0.26967026     0.02923988
O       2.24377102     6.44750302     1.67839201    -2.45155137    -1.09663864     0.33625465
O      -0.16859958     0.75302944     6.49104262    -1.15449748     0.68865712    -0.48056019
O       1.90870599     2.78736300     1.60350999     0.96813357     1.21757849     0.70132007
