# total energy = -19902.64649312 eV

CRYSTAL
PRIMVEC
        7.03772967     0.00000000     0.00000000
        0.00003503     6.77691312     0.00000000
        0.00000000     0.00000000    12.02624477
PRIMCOORD
24 1
Ti      2.55085931     4.01599238     4.46165114     0.23129216    -0.94188131     0.80316716
Ti      4.48690539     2.76092061     7.56459404    -0.23129216     0.94188131    -0.80316716
Ti      6.06960149     2.76092294     1.55142341     0.23160609     0.94199290    -0.80326203
Ti      0.96816328     4.01599039    10.47482197    -0.23160609    -0.94199290     0.80326203
Ti      2.55084186     0.62753595     1.55147166     0.23129216    -0.94188131    -0.80316716
Ti      4.48692291     6.14937723    10.47477373    -0.23129216     0.94188131     0.80316716
Ti      0.96814576     0.62753349     7.56454586    -0.23160609    -0.94199290    -0.80326203
Ti      6.06961893     6.14937977     4.46169938     0.23160609     0.94199290     0.80326203
O       2.22749823     2.38626623     6.13690081     1.13788943     1.37484419    -0.47994235
O       4.81026654     4.39064675     5.88934437    -1.13788943    -1.37484419     0.47994235
O       1.29143251     2.38629364     0.12381694    -1.13736004     1.37504731    -0.48087515
O       5.74633232     4.39061941    11.90242797     1.13736004    -1.37504731     0.48087515
O       4.81024902     1.00219012     0.12377794    -1.13788943    -1.37484419    -0.47994235
O       2.22751574     5.77472286    11.90246696     1.13788943     1.37484419     0.47994235
O       5.74631481     1.00216278     6.13693987     1.13736004    -1.37504731    -0.48087515
O       1.29144982     5.77475027     5.88930538    -1.13736004     1.37504731     0.48087515
O       0.25571842     4.12210274     3.24858882    -0.18583683    -0.11196773     0.10194299
O       6.78204635     2.65481031     8.77765636     0.18583683     0.11196773    -0.10194299
O       3.77458949     2.65474723     2.76457201    -0.18569208     0.11222689    -0.10206563
O       3.26317521     4.12216582     9.26167303     0.18569208    -0.11222689     0.10206563
O       0.25570091     0.73364612     2.76453356    -0.18583683    -0.11196773    -0.10194299
O       6.78206379     6.04326694     9.26171141     0.18583683     0.11196773     0.10194299
O       3.26315777     0.73370919     8.77769473     0.18569208    -0.11222689    -0.10206563
O       3.77460700     6.04320379     3.24855044    -0.18569208     0.11222689     0.10206563
