# total energy = -19958.95100315 eV

CRYSTAL
PRIMVEC
        7.60600008     0.00000000     0.00000000
        0.00000000     7.60600008     0.00000000
       -1.89786986    -1.89786986     4.85670466
PRIMCOORD
24 1
Ti      3.77004399     6.38985101     1.14942998     0.73455622     1.71219208    -0.77463279
Ti      3.77875901     2.57243401     1.27659699     1.51691235     0.03483126    -0.35668336
Ti     -0.01586500     6.76617499     1.21106902     0.28551057    -0.62982358    -2.04014386
Ti      0.02597498     2.80660500     1.24657099    -1.65443145     1.11034288     1.39443137
Ti      5.65189524     2.86580120     3.78628079     0.22809370     5.42821091    -2.33670401
Ti      5.74796822    -0.58936180     3.60081179    -1.00083544    -2.67039270    -1.09518057
Ti      1.74184423     2.72138122     3.66697281     2.41082303     0.77662257     0.00348230
Ti      1.95027222    -0.85084976     3.50719980     0.42823513    -1.45220871     1.36864012
O       3.98014398     4.53076402     0.76661199    -0.69472776     1.52929916     0.65318412
O       3.91182000     0.86274201     0.61090301    -0.41714827    -0.94842683     0.71291189
O       0.37720199     4.88597499     0.84122302    -1.21425380    -1.27872783     0.72413553
O      -0.04135102     1.09432601     0.63865698     0.63635881    -0.48039101     0.39454750
O       5.70964224     4.82024324     4.09171179    -0.31584240     0.65764061     0.29156655
O       5.36409923     1.19742223     4.07581584     0.45539036    -4.59620547     1.67021777
O       1.94888821     4.60551623     4.03781382    -0.41442187    -0.06563437     0.53911914
O       1.85461624     0.82948624     4.10621480    -0.09835939     1.86841030    -0.55684536
O       3.85943521     2.91541824     3.11210882    -0.70076574     0.14536817     1.29374360
O       3.77195723    -0.86278276     3.27857681     1.06265327    -0.49694043    -1.27381394
O      -0.00917175     2.91652321     3.37836880    -0.88379956    -0.42307287    -1.48734594
O       0.01638021    -0.68716375     3.20472780    -1.11335262    -0.21472807    -0.28175419
O       5.67467399     6.85399100     1.63708100     0.33135670    -0.75373306     0.04295415
O       5.71534798     2.51007698     1.63677497     2.05659867     1.24511013     0.57839404
O       1.94216698     6.95688301     1.48323700     0.15403639    -1.06073908     0.70026617
O       1.92238601     2.47563802     1.71465002    -1.79258639     0.56299595    -0.16448999
