# total energy = -19957.70421903 eV

CRYSTAL
PRIMVEC
        5.93400000     0.00000000     0.00000000
        0.00000000     9.29699974     0.00000000
        0.00000000     0.00000000     4.64899994
PRIMCOORD
24 1
Ti      4.52104399     6.89214198     2.07513498    -1.49481834     2.74135492     1.75756306
Ti      4.39141202     2.45925798     2.37739097    -0.65740484    -2.60696639     0.27769287
Ti      1.47097099     6.86811898     2.42453500     1.28565593     1.30818960     1.17349923
Ti      1.41394902     2.37677702     2.37520500     0.78914950    -1.54070663     0.77559130
Ti      2.98009201     4.95463299     0.03843398    -0.64256803    -3.59033787    -0.89875207
Ti      2.96976400     9.08584998     4.63782600    -0.63193703     3.15311004     0.43518277
Ti      0.02784203     4.66732398     4.55579998     0.61267457    -3.30059140    -0.73832263
Ti      5.87826002     9.12983699     0.16316900    -0.08977936     3.96422731    -1.08910608
O       4.60224100     5.59714900     0.83335998    -0.46003095    -0.24554224    -0.44211215
O       4.32468102     0.76945500     0.96104399     2.14528891    -0.64484654     0.21209398
O       1.42200003     5.75981898     0.80643798    -0.39512779    -2.04016469    -0.93737057
O       1.60390698     0.73346697     0.83539800    -2.33627001     1.24499546     1.61538538
O       4.38007000     8.30060899     3.86050600     2.87206599    -1.63738889    -1.98604937
O       4.33852599     3.79519701     3.62255801     1.06430418     2.99206971     2.94912713
O       1.54008498     8.40054200     3.63191402    -1.71265642    -1.53950567    -0.67843210
O       1.69503998     3.82021598     3.62512002    -1.46914483     1.63175046     1.71788244
O       3.04542301     6.05191101     3.18731898     0.27041048     0.26288203    -0.14753484
O       3.07566703     1.48677503     3.35151898    -1.30361946    -0.21573595    -1.05621471
O       5.78009399     6.01577900     3.12710300     0.87439934    -0.27894731     0.48312075
O       5.83196902     1.71202303     3.45377100     2.27757401    -1.22343855    -0.88607498
O       2.82731901     7.67827199     1.37258699     1.74203951    -0.13361642     0.21124114
O       3.05825201     3.24696202     1.43779099    -1.93256449     1.56272094    -1.56617110
O       0.19794600     7.87292698     1.44393400    -2.03135146    -0.79247111     0.61398043
O       5.91701601     3.28977399     1.46112702     1.22371032     0.92895894    -1.79622013
