# total energy = -19909.75189314 eV

CRYSTAL
PRIMVEC
        7.06490238     0.00000000     0.00000000
        0.00002314     3.22251101     0.00000000
        0.00000000     0.00000000    10.75222923
PRIMCOORD
24 1
Ti      2.56070091     1.90965706     3.98900036    -0.75111541     0.60738941     0.08207736
Ti      4.50422430     1.31285401     6.76322903     0.75111541    -0.60738941    -0.08207736
Ti      6.09303117     1.31285511     1.38707133    -0.74998310    -0.60758198    -0.08132685
Ti      0.97189403     1.90965606     9.36515816     0.74998310     0.60758198     0.08132685
Ti      2.56068949     0.29840160     1.38711446    -0.75055311     0.60769254    -0.08333231
Ti      4.50423571     2.92410952     9.36511503     0.75055311    -0.60769254     0.08333231
Ti      0.97188262     0.29840040     6.76318589     0.75017233     0.60738221    -0.08114970
Ti      6.09304259     2.92411072     3.98904349    -0.75017233    -0.60738221     0.08114970
O       2.23609427     1.13470090     5.48678031     5.77643791    -1.03844941     2.35615390
O       4.82883093     2.08781012     5.26544907    -5.77643791     1.03844941    -2.35615390
O       1.29641435     1.13471390     0.11070022    -5.77553828    -1.03911893     2.35717771
O       5.76851090     2.08779717    10.64152886     5.77553828     1.03911893    -2.35717771
O       4.82881957     0.47655461     0.11066534    -5.77697270     1.03905979     2.35679719
O       2.23610563     2.74595646    10.64156374     5.77697270    -1.03905979    -2.35679719
O       5.76849954     0.47654161     5.48681519     5.77642274     1.03932487     2.35691392
O       1.29642561     2.74596946     5.26541419    -5.77642274    -1.03932487    -2.35691392
O       0.25669821     1.96011386     2.90444538     1.36322614    -0.66778619     0.64578679
O       6.80822699     1.26239715     7.84778400    -1.36322614     0.66778619    -0.64578679
O       3.78915838     1.26236713     2.47170349     1.36355036     0.66833203    -0.64601202
O       3.27576682     1.96014393     8.28052574    -1.36355036    -0.66833203     0.64601202
O       0.25668685     0.34885835     2.47166918     1.36248798    -0.66787952    -0.64624779
O       6.80823835     2.87365271     8.28056005    -1.36248798     0.66787952     0.64624779
O       3.27575546     0.34888838     7.84781826    -1.36304976    -0.66799753    -0.64567701
O       3.78916974     2.87362269     2.90441107     1.36304976     0.66799753     0.64567701
