# total energy = -39035.02812569 eV

CRYSTAL
PRIMVEC
        7.60600008     0.00000000     0.00000000
        0.00000000     7.60600008     0.00000000
       -3.79573973    -3.79573973     9.71340985
PRIMCOORD
46 1
Ti      1.93525148     4.63125647     6.11092962    -0.09324186     1.68876083     0.00655889
Ti      3.76992398     6.78137201     1.33619298    -0.76032228     0.91009347    -0.31386574
Ti      2.04199245     1.00800747     5.99284065    -0.64980440    -2.16346327     0.17151296
Ti      3.82353799     2.86653798     1.19979998     0.57341484    -1.23259014    -0.09040156
Ti     -1.90380856     4.78826246     6.09735564     0.46697833     1.43959436     0.47611449
Ti     -0.00133601     6.67785002     1.13964798     0.56679167    -0.25199109     0.89962213
Ti     -1.86119756     0.99361347     6.03290762     0.08227456    -0.72780244    -0.63855299
Ti     -0.08714099     2.85069002     1.29169399    -0.04435669     0.25989800    -1.20803301
Ti      3.78714044     1.01899445     8.45154664    -0.41352456    -0.96154717     0.61427585
Ti      5.65368598     2.89343002     3.75064298     0.70218088    -0.61416350    -0.81350788
Ti      3.77763943    -2.76141856     8.53924264     0.21823223     1.07372676    -0.13559257
Ti      5.65703101    -0.90590197     3.64448097     0.93087519     0.24448938     0.68935107
Ti      0.02446746     0.83103445     8.25972465     0.06650958     0.27304946    -0.57708740
Ti      1.93712699     2.75071102     3.36405402    -0.83946781     0.08550438     2.38687782
Ti     -0.02517757    -2.97713554     8.51118365     0.24955805     0.68399108     0.31591542
Ti      1.79823002    -0.97948698     3.79533898     0.11805584    -0.47277591     1.33923517
O       1.97097343    -0.98245858     5.73017061    -0.52120034    -0.45246702    -1.28776089
O       3.80501700     1.04821102     1.07499898    -0.17520738    -2.67195902    -1.72389626
O      -2.10831757     2.98514544     5.71100561     0.41471601    -2.44824313    -0.42981610
O      -0.03416300     4.76533300     0.79508802     0.36259587     0.33524909    -0.48155083
O      -1.75681656    -0.86088254     5.73711860    -0.78810023    -1.20082826    -1.39985589
O       0.23445600     0.96476802     0.85401001    -0.81821866    -0.38706096    -1.20894241
O       3.51139247     2.92196644     8.82408160     0.73110631    -0.32841150     0.44122075
O      -1.59763602     4.68217401     4.17707200    -0.90051250     1.95018736    -1.27416875
O       3.50622945    -0.90192457     8.98675360     1.17708617    -0.42482739    -0.62423245
O       5.83421702     0.96561598     4.01492500    -0.74839673     0.00898395     0.23159863
O       0.02443947     2.54199447     9.09804063     0.06295477     1.33670495     0.20214483
O       1.98401997     4.55060901     4.27394599    -0.32487392    -0.74232892    -1.90900418
O      -0.07426458    -0.87794554     9.04358660     0.03395349     0.67693880    -1.04897963
O       1.89589598     0.88645900     4.06160902     0.10373068     2.22863562    -0.36407631
O       1.87441747     0.80242147     7.99196165     0.33016036     1.09048702    -0.35270406
O       3.82532301     2.65696299     3.13783599     0.58088133     1.26160557     1.07102273
O       1.79014345    -2.75611758     8.07389961     1.18574308    -0.61416015     1.18515044
O       3.62320101    -0.86460900     3.35975001     3.08675730    -0.80684512    -0.96474743
O      -1.97266155     1.17776647     7.92906761     0.97820844    -0.36644739     0.99562022
O      -0.01875002     2.76962001     3.22662097     0.02610905     0.32034852    -0.22671559
O      -1.87924457    -2.56215654     8.11155560    -0.57962817    -1.15657031     0.34779582
O       0.05401302    -0.84169700     3.17807902    -1.15798621    -0.61558480    -0.27203670
O       3.85537742     4.85677742     6.43077663    -1.03186379    -0.46851945     1.23110970
O       5.71734499     6.57381599     1.63212901    -1.00268792     0.02910387     0.95555187
O       3.86932542     0.72870247     6.40782362    -1.16514725     1.04647203     0.17231617
O       5.70547798     2.65527602     1.45652799    -0.41161988     1.29823326     1.15728327
O       0.03034345     4.79467943     6.56258463    -0.51984717    -1.17989999    -0.10508797
O       1.92052098     6.60355999     1.48300199    -0.05732405    -0.64923798     0.24037741
O       0.06031647     0.75566744     6.22175664    -0.16234440     1.64100514     1.82460692
O       1.90483902     2.79999701     1.47722100     0.11680243     1.05466151     0.49535329
