# total energy = -19074.85110655 eV

CRYSTAL
PRIMVEC
        5.17600016     0.00000000     0.00000000
        0.00000000     5.50899976     0.00000000
        0.00000000     0.00000000     9.26300011
PRIMCOORD
22 1
Ti      1.98907801     3.38570801     3.19997500    -0.13975776     2.16296859     1.32116751
Ti      3.40594999     2.30584002     5.94091503     0.96540203    -0.24216150    -0.72711879
Ti      4.47312302     2.34486298     1.27642501     1.12974778    -0.94878653    -2.49719824
Ti      0.73856401     3.18348001     8.10937899    -1.34044693    -0.41339215     1.56644544
Ti      1.92512599     0.59254300     1.37235299    -0.71058504    -0.66002197    -2.49002486
Ti      3.06642399     4.94819099     8.07210099     1.01162920     1.21254736     1.70996267
Ti      0.50737001     0.18852903     6.03723301     0.83969124     1.70681590    -1.71019690
Ti      4.56970300     4.95385298     3.37627098    -0.52621194     0.64307839     1.21714398
O       3.62152902     3.47032398     4.41306801    -0.68205299    -0.31394981     0.82784179
O       0.93964300     1.86686500     0.16429800    -0.41457743     0.83125724    -0.19515452
O       4.24207698     3.61573802     9.05125798    -0.68508997     0.20361293    -0.16169957
O       3.47036197     0.83295097     0.11122999    -0.22522332    -0.20109428    -0.62399308
O       1.59853001     4.71629801     9.19524499    -0.39041316    -0.64244950    -0.84485761
O       4.37289902     0.83894502     4.74695002    -0.45156456    -0.41207240     0.81582805
O       1.10054199     4.91668198     4.22541700     0.31357109    -1.20086503     2.00285951
O       0.28560501     3.60701200     2.27806499     0.17064495    -1.18317840     0.23157061
O       4.95922699     1.92151298     6.92477201     0.19577518    -0.58228669    -0.41295249
O       2.78610499     2.13084999     2.11308202     0.01896215    -0.57977806     0.74694508
O       2.22270802     3.38829600     7.04249601     0.77309707     0.85009392    -1.05568944
O       0.08780702     0.70445700     2.15250398     0.61949134     0.99540810    -0.24219646
O       2.26876501     0.83957098     6.53831301    -0.45918557    -1.47949378     0.43167604
O       2.90741798     4.76008801     2.30011998    -0.01290283     0.25374689     0.08964180
