# total energy = -4985.34490430 eV

CRYSTAL
PRIMVEC
        3.92509314     0.00000000     0.00000000
        0.00000000     2.96112701     0.00000000
        0.00000000    -0.00007829     5.19154357
PRIMCOORD
6 1
Ti      1.96254652     1.48052421     2.59577183     0.00000000     0.00000000     0.00000000
Ti      0.00000000     0.00000000     0.00000000     0.00000000     0.00000000     0.00000000
O       1.96254652     0.57706473     1.01175540     0.00000000    -1.24185229     0.21659367
O       1.96254652     2.38398369     4.17978827     0.00000000     1.24185229    -0.21659367
O       0.00000000     0.90342836     3.60752831     0.00000000     1.24170856     0.21521504
O       0.00000000     2.05762006     1.58401536     0.00000000    -1.24170856    -0.21521504
