# total energy = -19069.63944528 eV

CRYSTAL
PRIMVEC
        5.93400000     0.00000000     0.00000000
        0.00000000     9.29699974     0.00000000
        0.00000000     0.00000000     4.64899994
PRIMCOORD
22 1
Ti      4.24565099     6.58406901     2.44443397    -1.39806126     2.08705957     0.87952330
Ti      4.63969600     2.51468802     1.87158902     1.18427550    -0.90821245     1.71642000
Ti      1.37514302     7.13984800     2.60222098     3.80579279     0.99800672     2.49366169
Ti      1.63092301     2.62259901     2.10606100    -4.73341193    -3.55961497     2.64078824
Ti      3.02757698     4.33688300     4.53395099     1.36724041     1.89119569    -1.46746102
Ti      2.89568400     0.28345099     4.38501400     2.92191842    -0.83482696     1.49156486
Ti      0.03157299     4.49162401     4.01987699    -0.38015111    -0.29861009     1.02520180
Ti      5.91360498     9.19878201     0.62809402    -2.31998386    -0.57288262    -2.04019708
O       4.14544398     5.29954400     1.16555999     0.02301138    -0.27394060     0.48005831
O       4.35400702     0.63812199     1.31974801     0.91118130     2.52085111    -0.16357416
O       1.47092802     0.65756502     1.22083499     0.95389634     2.55517767     0.13865836
O       4.28068501     8.41587602     4.09975402     0.94325505     1.50687321    -0.94006046
O       4.49853998     3.37472700     3.63580300     0.37029761     1.09802164    -0.83071088
O       1.65401001     8.37347400     4.04183599    -3.39455292    -0.56994308    -1.50389716
O       1.68979700     4.18924498     3.09694000    -0.56711409     0.16994484     1.12824934
O       2.89151001     6.13773398     3.75474500    -0.22352331    -0.17711102    -1.27520593
O       2.96555498     1.77731598     3.28691099    -1.41890109    -1.13272511     0.32202153
O       5.71254297     6.29628602     3.81746701     1.12384658    -0.58371957    -1.99561748
O       2.92337600     7.87486901     1.77673701    -0.96873367    -2.58549767     0.67775693
O       2.98767601     3.03635498     1.24945898     3.30085365     1.35375034    -3.92647193
O       0.03503402     7.67331000     1.50474202    -1.22020899    -1.76016476     1.11895839
O       0.36178901     3.70888798     1.01583998    -0.28092706    -0.92363239     0.03033337
