# total energy = -19073.22256586 eV

CRYSTAL
PRIMVEC
        5.17600016     0.00000000     0.00000000
        0.00000000     5.50899976     0.00000000
        0.00000000     0.00000000     9.26300011
PRIMCOORD
22 1
Ti      1.68986500     3.28868299     3.33960699     1.29872974     1.44729019    -0.69826868
Ti      3.65855799     2.16297401     6.01293700    -0.29963699    -0.13401315    -1.29357210
Ti      4.42236301     2.23354599     1.36838199    -0.51028909    -1.04121849    -1.34918354
Ti      0.94243902     3.15221199     7.99493102    -0.72828941    -0.43366607    -0.42362437
Ti      1.73973599     0.57366301     1.22826099     1.27847561    -0.27822175    -0.50666049
Ti      3.33635498     5.06726799     7.98556998     0.83376664     1.90790632     0.86821121
Ti      0.83713200     0.12564700     6.00643098    -0.58895074     1.01612940    -0.50980521
Ti      4.28316299     4.90571298     3.46602801    -0.26219965    -0.11244852    -0.03151299
O       3.45828001     3.38859901     4.39539201     0.02815925    -0.34605416     0.83838306
O       0.95646100     2.02477202     0.26645101    -0.54699546    -0.47974900    -0.56061177
O       4.45117200     3.72319900     8.63576398    -0.96159654     0.20808794     0.20506844
O       3.64567501     0.93448898     0.19384302    -1.34667877    -0.58175987    -0.62484052
O       1.81471998     4.67016799     8.91160101    -0.95427738     0.48367945     2.12554180
O       4.21764598     0.68520400     5.01002102     0.13229693    -0.40818078    -0.78900989
O       1.03242598     4.82872097     4.22654901    -0.60107812     0.01500316     1.49273266
O       0.12549698     3.75682001     2.26132600    -0.17633301    -1.50877146    -0.17806079
O       4.92796700     1.42108201     7.18111197     0.57303817     0.22066424    -0.27381333
O       2.53696300     2.21938600     2.02310400     1.08240706    -0.81540587     0.98645269
O       1.96915501     4.29117299     6.66869202     1.02323516    -1.75950888    -0.33905818
O       5.15209098     0.79528202     2.34491801     0.96321531     1.40458004    -0.47270006
O       2.25223198     1.28356398     6.88055898     0.08285769     0.65243104     0.14602252
O       2.79801799     4.76384099     2.20514097    -0.31985615     0.54322596     1.38830906
