# total energy = -19960.53116294 eV

CRYSTAL
PRIMVEC
        7.60600008     0.00000000     0.00000000
        0.00000000     7.60600008     0.00000000
       -1.89786986    -1.89786986     4.85670466
PRIMCOORD
24 1
Ti      3.77020698     6.70284697     1.29914100    -0.24059467    -1.58937352    -1.18431792
Ti      3.79912101     2.85203900     1.25178699    -0.12383363     1.50539509    -1.41051183
Ti     -0.04096102     6.53655599     1.19285299     0.11327179    -0.52861284     0.02630857
Ti      0.06513701     2.73943600     1.23680000     0.20237340     0.85237861    -0.46252029
Ti      5.74491021     2.72568322     3.57568079     0.22596946     1.77304728     1.15617770
Ti      5.69649022    -1.00139778     3.63685982     0.27548404    -1.97977794    -0.49796887
Ti      1.89185624     2.95038320     3.58064680     0.42300576     0.92525141     2.14409643
Ti      1.84843820    -0.86373279     3.66819283    -0.45325095    -0.93907135    -0.63320355
O       3.87266702     4.86704097     0.68826301    -0.03552906    -1.81371392     0.76300780
O       3.80603302     0.91945399     0.80782701     0.23163103     2.19738462     0.59366614
O       0.02967700     4.67578102     0.64657602    -0.28290758    -1.10041893     0.37064343
O      -0.07720902     0.76894699     0.82623201     0.07502765     2.91793140    -0.02660604
O       5.64681821     4.67406522     4.09396784     0.25437321     0.05790872    -0.70263005
O       5.95821023     0.80422623     4.04376579    -0.73517097     1.35888843     0.07055033
O       1.79440423     4.77417322     4.16678681     0.44269296     1.20300830    -0.90927586
O       1.71472125     1.01822625     4.06972681     0.60967024    -0.43786829    -0.15844223
O       3.76663022     3.10567323     3.10464879     1.42548440    -1.38112334     0.75874748
O       3.76606024    -0.94969377     3.26104480     0.25902640     0.41552205     0.27454070
O       0.09896821     3.12098323     3.19406684    -2.07258682    -1.34779695    -0.82179584
O      -0.00466777    -1.05264378     3.22807881    -0.45475350    -0.11185820     0.09719493
O       5.68822702     6.43468598     1.59890398    -0.02802709     0.77186628     1.15976053
O       5.78998198     2.90860598     1.67020897    -0.33697276    -0.68512186    -0.83282022
O       1.83953897     6.74798098     1.64408201     0.68474030    -0.41017338     0.49344862
O       1.93627400     3.20789397     1.57919398    -0.45912309    -1.65367117    -0.26804969
