# total energy = -4989.04067271 eV

CRYSTAL
PRIMVEC
        3.66027058     0.00000000     0.00000000
        0.90098154     3.54764893     0.00000000
       -2.28065939    -1.77385039     4.70882360
PRIMCOORD
6 1
Ti      0.67561730     2.66087256     1.17720582     0.00056924    -0.00056924    -0.00000000
Ti      1.60497560    -0.88707388     3.53161747    -0.00056924     0.00056924     0.00000000
O       0.22528377     0.88690718     0.76702883     0.00005631     0.00061861    -0.07862899
O       2.05530897     0.88689141     3.94179446    -0.00005631    -0.00061861     0.07862899
O      -0.22525761    -0.88688684     3.12144048     0.00061861     0.00005631    -0.07862899
O       2.50585034     2.66068538     1.58738282    -0.00061861    -0.00005631     0.07862899
