# total energy = -4933.01690659 eV

CRYSTAL
PRIMVEC
        5.92815750     0.00000000     0.00000000
       -0.00000769     2.24861115     0.00000000
       -2.96411429    -1.12441231     6.54255504
PRIMCOORD
6 1
Ti     -0.00025330     1.68652200     1.63563848    -0.03143998    -0.02193846    59.75014435
Ti      2.96428888    -0.56232344     4.90691605     0.03143998     0.02193846   -59.75014435
O       0.00006294     0.56213489     1.06572867     0.03089027     0.02141061   -55.32892539
O       2.96397247     0.56206361     5.47682592    -0.03089027    -0.02141061    55.32892539
O      -0.00002570    -0.56219683     4.33700619    -0.00148738     0.00004114    -1.06549537
O       2.96406099     1.68639527     2.20554840     0.00148738    -0.00004114     1.06549537
