# total energy = -4989.80679624 eV

CRYSTAL
PRIMVEC
        2.86386877     0.00000000     0.00000000
        0.22422276     4.48164743     0.00000000
       -0.00000124    -0.00005824     4.48865694
PRIMCOORD
6 1
Ti      1.54404504     2.24079445     2.24432837     0.00000000     0.00000000     0.00000000
Ti      0.00000000     0.00000000     0.00000000     0.00000000     0.00000000     0.00000000
O       1.47563178     0.87339561     0.87477306    -0.49948223     0.48161280     0.48299348
O       1.61245825     3.60819328     3.61388363     0.49948223    -0.48161280    -0.48299348
O       0.06841265     1.36737523     3.11910234     0.49950485    -0.48247514     0.48379078
O       0.15580877     3.11421387     1.36955434    -0.49950485     0.48247514    -0.48379078
