# total energy = -19961.21125137 eV

CRYSTAL
PRIMVEC
        7.60600008     0.00000000     0.00000000
        0.00000000     7.60600008     0.00000000
       -1.89786986    -1.89786986     4.85670466
PRIMCOORD
24 1
Ti      3.89588102     6.65567400     1.18320101    -1.16304923    -0.92447468     0.09066510
Ti      3.82275301     2.75035198     1.17855097    -0.43796213     1.33818307     0.70377033
Ti     -0.03236099     6.62801300     1.18618102     1.01536732     1.40331531    -0.16381430
Ti     -0.06450702     2.91709800     1.27651798     0.72489324    -1.21020662     0.16687674
Ti      5.67181321     2.81914423     3.69279682     0.70024843     0.59650207    -0.41667416
Ti      5.69930021    -0.91617177     3.62925279     0.29422867    -0.54381680     1.20081001
Ti      1.97950022     2.82331123     3.67796181    -0.84473317    -0.04931995    -1.26596976
Ti      1.95473822    -0.95814680     3.66464982    -0.35601230     0.06645738    -2.39338297
O       3.86986302     4.72930000     0.68230998    -0.01492012    -0.69573846     2.18753343
O       3.84597601     0.93392900     0.70049198     0.03371772    -0.44342856     0.59575825
O      -0.21063202     4.76631500     0.82569098     0.59753874    -0.16518238    -0.23207197
O      -0.06647900     0.97431501     0.79781101     0.28878281     0.06330881    -0.53501797
O       5.48181323     4.79085824     3.99841679     0.40673607    -0.05709060     0.53574559
O       5.62202525     0.98148722     4.03082783     0.59563998    -0.06815149     0.88569600
O       2.00045024     4.64371420     4.07256780     0.16329185     2.45054093    -0.75105216
O       1.83831520     0.88953923     4.08553783    -0.04227924    -0.02245782    -0.65342066
O       3.82130820     2.77176720     3.09121780    -0.84187796    -0.07531201     0.93638352
O       3.89636823    -0.66513776     3.12549483    -1.84233879    -0.94079014     0.31938281
O      -0.07403375     2.94946820     3.35219479     0.44382091    -0.17411697    -0.55224051
O      -0.03984779    -1.02786077     3.17380279     0.94970647     0.08288211     0.25297710
O       5.71582700     6.68701600     1.53957199    -0.24466935     0.00876284     0.45273621
O       5.72411799     2.77496798     1.69691099    -0.94816740     0.06240173    -0.72553910
O       1.92340399     6.74955300     1.58963899    -0.04073477    -0.69353091     0.39751558
O       1.82333398     2.84442599     1.71981199     0.56277278    -0.00873713    -1.03666764
