# total energy = -79406.20492881 eV

CRYSTAL
PRIMVEC
       10.35150501     0.00002646     0.00000000
        0.00002858    11.01713167     0.00000000
        0.00000000     0.00000000     9.26345890
PRIMCOORD
95 1
Ti      7.03772425     8.80875448     3.45927827    -0.04097414     0.01702534     0.04640252
Ti      7.08516540     3.24768647     3.42296243     0.03333848     0.01236058     0.03803409
Ti      1.88022203     8.77704778     3.43959125    -0.10459406     0.12865342     0.08185521
Ti      1.80901588     3.20120917     3.45150216    -0.04161435    -0.13069025     0.10632467
Ti      8.48496318     7.74895272     5.81840125    -0.01543177     0.00534533    -0.02749642
Ti      8.47742633     2.24560040     5.82381194     0.09279089    -0.08419980     0.04710494
Ti      3.28222151     7.74616998     5.82278437    -0.02800961     0.02983792     0.03263374
Ti      3.27909978     2.29201338     5.77480225    -0.03984286    -0.26493711     0.09182673
Ti      9.56637014     7.77092848     1.22804006     0.07225625     0.08445254    -0.17092057
Ti      9.64633844     2.22683924     1.18597119     0.00739887    -0.11463782    -0.04045041
Ti      4.46558338     7.72804824     1.20841687     0.09709852     0.02801604    -0.04299040
Ti      4.45436613     2.27779860     1.20887822     0.07618593    -0.09760297     0.01722691
Ti      5.88983140     8.78654433     8.08266105     0.03432553     0.01889427    -0.00046408
Ti      5.88336545     3.23162371     8.04294410     0.08056709     0.12850353     0.08365601
Ti      0.67785343     8.88014651     7.97336664     0.06397164    -0.16696673     0.06481085
Ti      0.71048095     3.27185397     8.07781324    -0.00622696    -0.00665145    -0.04571963
Ti      7.02015862     6.00254223     1.18327810     0.08577229     0.04780120    -0.00567623
Ti      7.03408509     0.52524073     1.19909035     0.01722074     0.05475809     0.09588419
Ti      1.76848307     6.22384584     0.98791703    -0.07996494     0.14250705    -0.02132911
Ti      1.87721613     0.50167293     1.17775806     0.00449095     0.02568867     0.02303195
Ti      8.44810779    10.50377923     8.08651641    -0.09193034    -0.06714464     0.04429010
Ti      8.48402410     4.98415431     8.09353828     0.05946398    -0.03067250    -0.03747487
Ti      3.31694330    10.52047020     8.07731456     0.00725231    -0.09237540     0.01326124
Ti      3.29645398     4.96466878     8.06436340     0.09758934    -0.01101127    -0.03574015
Ti      5.90084189     6.08856934     5.90423726     0.00128787    -0.01901023     0.04327837
Ti      5.87750659     0.53377806     5.83699094     0.08924585     0.01602698    -0.00297682
Ti      0.71983995     6.01286671     5.81542990     0.01029084     0.02684541     0.06046234
Ti      0.73429768     0.51975841     5.83553957     0.02693951     0.16170445    -0.06381043
Ti      9.64215942    10.51966486     3.44090891    -0.00209545    -0.05827665     0.04558619
Ti      9.64643525     5.00347967     3.41317570    -0.04039282    -0.02246965    -0.00869393
Ti      4.46402925    10.51357087     3.44015359    -0.09199282    -0.05362552     0.03569515
Ti      4.61172814     4.98027574     3.55812414     0.22282654    -0.09897105     0.18976702
O       6.81659759     7.44246641     4.72006882     0.02363436     0.00190030     0.05177689
O       6.81833285     1.93542107     4.72736993     0.05455214     0.01382328    -0.00877415
O       1.63796016     7.45564946     4.74751875     0.00109735     0.00812058    -0.01743851
O       1.63756481     1.90471637     4.75127645    -0.03814670    -0.02278487    -0.02709532
O       8.71463303     9.07646529     4.53798629     0.02975693     0.03066247     0.00893896
O       8.73421784     3.56854796     4.53898543     0.05200469     0.01829392    -0.01277479
O       3.53402238     9.08014382     4.54005567    -0.01259712    -0.00897290     0.01112003
O       3.55882010     3.60816451     4.47665507    -0.01862122     0.14940403    -0.21587273
O       6.12472781     7.44422176     0.10226955     0.00334192    -0.06572925     0.04192597
O       6.12323195     1.93143370     0.10162102    -0.00260273    -0.02035800    -0.06256036
O       0.92202477     7.47581448     0.03310094     0.08273942    -0.23423658     0.06897270
O       0.93902268     1.92158792     0.08907171    -0.00848979     0.01469772    -0.03970993
O       9.39212646     9.07871785     9.17190001    -0.10249655     0.13845190    -0.00753693
O       9.40219990     3.56975215     9.16232088     0.03765356    -0.01166176    -0.00196818
O       4.21801506     9.04938200     9.17617242    -0.01787714    -0.00306604     0.02913909
O       4.23737980     3.57335133     9.16455985    -0.03295256     0.01822579     0.01673840
O       8.72473682     6.32043970     0.09783512    -0.03767773     0.00344579     0.03813076
O       8.70948377     0.81518993     0.09234392    -0.02894678     0.01409454     0.00090169
O       3.54175812     6.28960958     0.11785702    -0.11696775     0.08995779    -0.02714752
O       3.53202438     0.82492840     0.11764757     0.01164273    -0.04391652    -0.03045961
O       6.81496486    10.19489408     9.16666291    -0.05749529    -0.01695463     0.03531771
O       6.82178689     4.68803664     9.16303775    -0.00691884    -0.05101122    -0.00153315
O       1.63930568    10.19383538     9.18341139     0.00874715     0.02285532    -0.00821699
O       1.66715172     4.63809771     9.22743934     0.00497020     0.24580938     0.00028231
O       9.41438726     6.31195770     4.73941973     0.00208105    -0.03297750    -0.06483733
O       9.40100598     0.81369174     4.72801124    -0.04158709    -0.00019309     0.00225589
O       4.20496526     6.33512613     4.72201511     0.02816902    -0.05669850    -0.03589210
O       4.22071126     0.83485656     4.72126458    -0.00758579    -0.04764179    -0.04159147
O       6.11555269    10.20377583     4.53849310    -0.01717986    -0.01437916     0.00145422
O       6.13263116     4.68112310     4.57276984     0.04580525     0.06885571    -0.03752784
O       0.94599240    10.19221814     4.53859527     0.01400429    -0.04216354    -0.02744988
O       1.02528024     4.72305323     4.47017521    -0.00554999     0.05095414    -0.04759782
O       5.36379796     8.84889639     2.50225412    -0.07040891    -0.01698806    -0.00297605
O       5.41423458     3.33998821     2.48483204    -0.03798344     0.05717339     0.06071919
O       0.19591627     8.85158461     2.49520310     0.02105040     0.00779687    -0.01756758
O       0.17175179     3.36905629     2.47617313    -0.01534641     0.02746556     0.04073297
O      10.16579821     7.66214305     6.76271046    -0.02571387    -0.02201894    -0.10731223
O      10.16785177     2.13790796     6.76283679     0.02337314     0.02062900     0.04275283
O       4.99763158     7.64885063     6.75687293    -0.02383825     0.05113052     0.08052492
O       4.99493383     2.15055546     6.75648988    -0.07329267     0.01912027    -0.01493632
O       7.94158612     7.66600444     2.13759361    -0.06145967    -0.01625812     0.00047180
O       7.96034523     2.14172633     2.12825142     0.00235796    -0.05439351     0.00778556
O       2.77634210     7.54289997     2.18474355    -0.08732832    -0.08489014    -0.16121311
O       2.75813111     2.20258978     2.12646168     0.08210641     0.10232300    -0.01888450
O       7.57144956     8.85210310     7.13225876    -0.04885175    -0.03071929     0.00257265
O       7.57685603     3.35152749     7.13272413     0.01413824    -0.03772401    -0.03216554
O       2.39137319     8.85498918     7.13918882     0.03208892     0.04232269    -0.05255980
O       2.39890558     3.36881268     7.11624080    -0.04091038    -0.04390315    -0.01078090
O       5.34260687     6.07038696     2.10327129    -0.08739800    -0.06580972     0.15836999
O       5.36155379     0.59645230     2.13636336    -0.01086934    -0.02189578     0.01628614
O       0.21876170     6.11625877     2.13760142     0.01134603     0.08567870    -0.17299597
O       0.18846622     0.60810470     2.13933265     0.02378374     0.00645347     0.02282343
O      10.16502223    10.40031068     7.14224226    -0.14668535     0.17466719    -0.12032459
O      10.17910820     4.90710309     7.13295976    -0.00500517    -0.06454628    -0.01473551
O       4.99737743    10.40670465     7.13811238    -0.03881724     0.02170809     0.02619107
O       4.98866058     4.91291667     7.13407242    -0.01935476    -0.06174121     0.03679430
O       7.57345602     6.10339150     6.76280873     0.05655169     0.00502471     0.08402908
O       7.57014074     0.59127423     6.76553562    -0.04352082     0.01587940     0.00296911
O       2.39892838     6.10847320     6.78084216     0.00722455    -0.01977693    -0.00460870
O       2.39597098     0.55292432     6.79374802     0.01617096     0.08227379    -0.07402080
O       7.94822814    10.41604839     2.50047777     0.02170089     0.01076444     0.00233456
O       7.94891699     4.91509867     2.51074767     0.07960473     0.02088636    -0.02155125
O       2.77860863    10.40010378     2.49735170     0.00153623    -0.03661895    -0.00708313
