# total energy = -19518.35468723 eV

CRYSTAL
PRIMVEC
        5.93400000     0.00000000     0.00000000
        0.00000000     9.29699974     0.00000000
        0.00000000     0.00000000     4.64899994
PRIMCOORD
23 1
Ti      4.50243901     7.03024698     2.26802300     0.90149724     0.13548973    -0.14812259
Ti      4.47688399     2.29835899     2.30819602     0.05241530    -0.20667923     0.33968579
Ti      1.46451302     7.11607101     2.33642202    -0.58376482    -0.57409747    -0.57544884
Ti      1.43690901     2.31111099     2.35224399    -0.03481481    -0.20987074    -0.56235421
Ti      3.01513000     4.46073498     0.08210503    -0.18845422     0.13691232     0.69858184
Ti      2.94377198     0.06311502     4.59685900     0.17208786    -0.08984003     0.24136883
Ti      0.03959601     4.65020599     0.01031298     0.20923054     0.45906575    -0.18694678
Ti      5.91463000     0.05497199     0.01057503    -0.28163103     0.11309027     0.17667033
O       4.44228299     5.53384903     0.90639998    -0.69870603     0.27366344    -0.23063395
O       4.38729999     0.90751501     0.93729102     0.26187261    -0.42640733    -0.40716776
O       1.55510398     5.56065000     0.86743899     0.08669095    -0.26954324    -0.22156335
O       1.49280400     0.95891903     0.91222099    -0.08546864    -0.71851201    -0.60749688
O       4.45914099     8.45183203     3.76391199    -0.19253122    -0.87982180    -0.38503930
O       4.48746499     3.65929302     3.73672599    -0.65543640     0.74466451    -0.12394393
O       1.44839401     8.22875302     3.79796402     0.45588247     1.05609104     0.79782261
O       1.35099502     3.69161400     3.65568101     1.19917993     0.92447057     0.57303483
O       2.84453902     1.43306798     3.22985599     0.78004059    -0.66931419     0.59772669
O       5.91962400     6.07455398     3.15890899    -0.17791578    -0.48523702     0.50617944
O       0.01350101     1.35591701     3.21003503    -0.07521148    -0.11504097     0.15136681
O       3.00303798     7.94048101     1.53115802    -0.30344788    -0.58516813    -0.10346046
O       3.03723399     3.15218399     1.36925100    -0.87373857     0.60938536    -0.13945823
O       0.02937098     7.94411302     1.46716901    -0.36864671     0.13158911    -0.45821318
O       5.84815401     3.13785001     1.33875198     0.40087010     0.64511008     0.06741204
