# total energy = -19070.49554750 eV

CRYSTAL
PRIMVEC
        5.93400000     0.00000000     0.00000000
        0.00000000     9.29699974     0.00000000
        0.00000000     0.00000000     4.64899994
PRIMCOORD
22 1
Ti      4.38187100     6.71879601     2.57982302    -0.87469245     2.43160629    -0.84128943
Ti      4.39232400     2.48702502     2.10749502     1.83101565    -1.05507263     0.98217051
Ti      1.37930198     7.25147498     2.69636801     2.25047612     2.32048703    -1.24255574
Ti      1.62322100     2.34410398     2.08418100    -1.56311843     0.09136213     0.08570673
Ti      3.08966302     4.62797198     4.62384900    -1.03210084    -0.75837930    -1.56028996
Ti      2.91902500     0.19497202     0.31591601     3.01505795    -2.45463361    -0.53556921
Ti      0.12608701     4.30185300     3.88042598     0.87232960    -2.43709971     1.24495972
Ti      5.90650702     0.09620998     0.13624499    -2.66548138    -1.14953988     0.88507739
O       3.86252798     5.64009898     1.12542100     1.92439584     0.06487076     1.04881559
O       4.61892701     0.63370801     1.32211999    -1.20288206     1.45247199     0.18304642
O       1.53738702     0.45873900     1.44981602    -2.00728592     2.54767210     0.11435937
O       4.26475402     8.35592500     3.92096201     1.40279081     1.53460206     0.41372768
O       4.20004200     4.12872298     3.18137002     2.65260786    -0.58992056     0.42776282
O       1.39495801     8.56220099     4.10255300     1.52022316    -1.08068314    -2.61673427
O       1.86477898     3.81885398     3.19671500    -3.32157495     1.40232235     0.88242530
O       2.84795401     6.20383801     3.49197500    -0.94687414     0.07773270     0.26841633
O       3.01091901     1.71405501     3.17691599     1.02052085    -1.74895321     1.34400097
O       0.14620802     6.16434901     3.56865898    -1.13912511    -1.36641637     0.04829742
O       2.94960102     7.86438098     1.58542499    -0.25700063    -0.44788094     0.79722997
O       3.06368402     2.88817799     0.92798502    -0.79163447     0.80449848    -1.19717318
O       0.00996002     7.68652599     1.56287701    -0.43362134    -0.50770487     0.12020323
O       0.09121799     2.89255101     0.93131502    -0.25402637     0.86865858    -0.85258712
