# total energy = -19959.05223281 eV

CRYSTAL
PRIMVEC
        5.24433138     0.00000000     0.00000000
        0.00002610     5.04997773     0.00000000
        0.00000000     0.00000000     8.96164185
PRIMCOORD
24 1
Ti      1.90083338     2.99261208     3.32470529    -0.25277682     0.80500833    -1.19386211
Ti      3.34352410     2.05736555     5.63693687     0.25277682    -0.80500833     1.19386211
Ti      4.52290767     2.05736729     1.15607999    -0.24862243    -0.80508572     1.19458202
Ti      0.72144986     2.99261060     7.80556232     0.24862243     0.80508572    -1.19458202
Ti      1.90082038     0.46762332     1.15611594    -0.25292825     0.80170420     1.19383692
Ti      3.34353715     4.58235446     7.80552637     0.25292825    -0.80170420    -1.19383692
Ti      0.72143681     0.46762148     5.63690097     0.24851907     0.80154762     1.19458845
Ti      4.52292067     4.58235635     3.32474124    -0.24851907    -0.80154762    -1.19458845
O       1.65987320     1.77818294     4.57305736    -0.12882440    -0.82288110     0.53416771
O       3.58448433     3.27179468     4.38858480     0.12882440     0.82288110    -0.53416771
O       0.96234160     1.77820337     0.09226513     0.12875755    -0.82302457     0.53417413
O       4.28201598     3.27177431     8.86937683    -0.12875755     0.82302457    -0.53417413
O       3.58447128     0.74680577     0.09223607     0.12903600     0.82296080     0.53418570
O       1.65988625     4.30317186     8.86940588    -0.12903600    -0.82296080    -0.53418570
O       4.28200293     0.74678540     4.57308647    -0.12881412     0.82303640     0.53409751
O       0.96235450     4.30319228     4.38855575     0.12881412    -0.82303640    -0.53409751
O       0.19055465     3.07168274     2.42076310     0.42279108    -0.13110368     0.21090690
O       5.05380288     1.97829494     6.54087906    -0.42279108     0.13110368    -0.21090690
O       2.81272499     1.97824794     2.06008648     0.42328473     0.13086406    -0.21098480
O       2.43163249     3.07172974     6.90155558    -0.42328473    -0.13086406     0.21098480
O       0.19054160     0.54669382     2.06005783     0.42288775    -0.13110266    -0.21103777
O       5.05381588     4.50328386     6.90158418    -0.42288775     0.13110266     0.21103777
O       2.43161949     0.54674083     6.54090766    -0.42323768    -0.13114559    -0.21080328
O       2.81273804     4.50323680     2.42073450     0.42323768     0.13114559     0.21080328
