# total energy = -19517.69762358 eV

CRYSTAL
PRIMVEC
        5.93400000     0.00000000     0.00000000
        0.00000000     9.29699974     0.00000000
        0.00000000     0.00000000     4.64899994
PRIMCOORD
23 1
Ti      4.44647302     6.90745500     2.34862702     0.75187466     0.34083585    -0.31011861
Ti      4.41967903     2.33757298     2.28255998     0.32798444     0.56920980     0.67135025
Ti      1.43903101     7.03695197     2.33397098    -0.68444566    -0.04563170    -0.50501396
Ti      1.47789802     2.35396901     2.29639600    -0.36525645     0.07022431     0.19210750
Ti      2.88698999     4.66256900     0.06665898     1.20300445    -1.17003801    -0.33382959
Ti      2.97484500     0.01657399     0.03490099     0.12512458    -0.07490218     0.01347798
Ti      0.02178602     4.69005500     0.05373298    -1.42427109    -0.53161511    -0.93118552
Ti      5.92821599     9.24292598     4.53020902    -0.49344759     0.62134228     0.53458448
O       4.55293200     5.53021501     1.06040601    -1.05687292    -0.07154354    -0.71337083
O       4.33267303     1.02002101     0.78804102     0.78092197    -0.35296966     0.20362219
O       1.58210001     5.64015401     0.93322699     0.04706663     0.03137775    -0.50481367
O       1.52085399     0.84106802     0.84538902    -0.50943574     0.50783934     0.33784308
O       4.46458802     8.28018598     3.76313199    -0.11468487     0.27442500     0.31824278
O       4.55150301     3.68563398     3.80298501    -0.70644299     0.57199945    -0.66538555
O       1.34779202     8.26498203     3.78460499     1.22379979     0.28519432    -0.17282371
O       1.48508298     3.67737802     3.76290597     1.07867588     0.94909274     0.06769511
O       2.98247002     1.43998501     3.14638701     0.18812383    -0.43264689    -0.03379228
O       0.10485398     5.95877502     3.24696398     0.07852512     0.65119048    -0.22474741
O       5.91927401     1.39544898     3.14336599     0.11943216    -0.29570474    -0.01355435
O       3.05035801     7.90547800     1.45850902    -0.44883585    -0.61228788     0.49388159
O       2.96233102     3.41674103     1.41277297     0.16844846    -1.42716796     0.94023015
O       5.90662302     7.79295301     1.46998000     0.17427741     1.12185320    -0.55855746
O       0.15076397     3.28253199     1.31699401    -0.46356647    -0.98007763     1.19415728
