# total energy = -4988.82887431 eV

CRYSTAL
PRIMVEC
        3.64110686     0.00000000     0.00000000
        0.89626436     3.52907486     0.00000000
       -2.26871876    -1.76456321     4.68417007
PRIMCOORD
6 1
Ti      0.67208003     2.64694129     1.17104244     0.00042038    -0.00042038     0.00000000
Ti      1.59657259    -0.88242951     3.51312733    -0.00042038     0.00042038     0.00000000
O       0.22410427     0.88226369     0.76301297     0.00020415     0.00077776     0.00551733
O       2.04454819     0.88224800     3.92115679    -0.00020415    -0.00077776    -0.00551733
O      -0.22407825    -0.88224345     3.10509786     0.00077776     0.00020415     0.00551733
O       2.49273070     2.64675509     1.57907191    -0.00077776    -0.00020415    -0.00551733
