# total energy = -19516.92668949 eV

CRYSTAL
PRIMVEC
        5.17600016     0.00000000     0.00000000
        0.00000000     5.50899976     0.00000000
        0.00000000     0.00000000     9.26300011
PRIMCOORD
23 1
Ti      1.81579098     3.27729298     3.38747303     0.20807920     0.23080545     4.07038126
Ti      3.43144400     2.17925002     5.77128202    -0.54572379     0.98153648    -2.60782411
Ti      4.33036698     2.09091399     1.56171399     1.13027228     1.20965666    -2.14597513
Ti      0.83430302     3.46291201     7.70865698    -0.68096232    -0.42245143     1.45111574
Ti      1.92604998     0.20136401     1.24914999     0.13871132     0.45181576     0.72105535
Ti      3.19150700     5.02160502     7.93190802     0.62841641     0.06885365     1.40482892
Ti      0.84710599     0.54083402     5.96127703    -0.35589120    -0.78466807    -2.95716774
Ti      4.49857200     5.00933399     3.35194301     0.49303287    -1.07246358     2.28103472
O       1.81406999     1.77196002     4.81692403    -0.81590312     0.30958253    -0.43754716
O       3.50203900     3.57311899     4.46015701     0.76861229    -0.89424287     0.52562290
O       4.89838901     2.78760500     9.18825699     0.08896766     0.00610380     0.78290557
O       3.47716799     0.65101899     0.41601598     0.48154492     0.42605638    -0.69447245
O       1.76168901     4.53301398     9.12297197    -0.56655616    -0.80031015     0.39853605
O       4.21258599     0.66825302     4.64254599     0.16146354     1.99684133     2.09460396
O       0.92359703     4.59402700     4.47210001    -0.13977139     1.14626943     2.17036900
O       0.26377501     3.59278099     2.47210799    -1.34653556    -1.63850552    -2.34450962
O       5.15068802     2.09131098     6.68390597    -0.21102851     0.12363180    -0.13914584
O       2.60564602     2.12811499     2.29799301     1.37260656    -2.01682292    -2.61152136
O       2.63627502     3.54900401     6.90912101    -0.06210631    -1.15368193     0.63082657
O       0.31425202     0.79507702     2.26847402    -0.09932098     0.25281975    -1.17422196
O       5.02718599     4.97448602     7.38237999    -0.37590134     0.12411825    -0.69266548
O       2.46944099     0.78489898     6.94388298    -0.02561668     1.24492218     0.08628265
O       2.78450000     4.75545702     2.51598302    -0.24638942     0.21013248    -0.81251132
