# total energy = -39035.51552846 eV

CRYSTAL
PRIMVEC
        7.60600008     0.00000000     0.00000000
        0.00000000     7.60600008     0.00000000
       -3.79573973    -3.79573973     9.71340985
PRIMCOORD
46 1
Ti      1.87241342     4.83693344     6.22128964    -0.24298502     0.25737266     0.01918686
Ti      3.76689401     6.68618398     1.33243302    -0.46529245     0.56938078    -1.53642471
Ti      1.81869045     0.75195447     6.00597361     0.30921409    -0.32716091     2.19251546
Ti      3.71048700     2.76631599     1.12180100    -0.14657093    -1.02128883     0.54191804
Ti     -1.96647854     4.61544444     6.13323762     1.42549700     1.00629467    -1.30157441
Ti     -0.05067200     6.74760801     1.28719900     0.48401549    -0.59370496     0.07678577
Ti     -1.84243955     1.08718043     6.08970760     0.49911867    -2.97778131    -1.08124313
Ti      0.09186200     2.96023701     1.08201200    -0.67806263     0.46290236     0.13941658
Ti      3.93394844     1.09608944     8.35123961    -1.29320212    -0.66585195     1.62865999
Ti      5.61222298     2.83419001     3.29965299     0.85507647     0.00473237     2.74511876
Ti      3.84913842    -2.86809355     8.53430462     0.54206280     0.62832154     0.35203352
Ti      5.63359402    -0.94261798     3.71786198     1.42619274     0.42990661     0.78220212
Ti      0.10522346     0.99326443     8.50656964     0.44686741     1.06845085    -0.32019245
Ti      1.89039201     2.71863600     3.50614002    -1.11022641     0.29768192    -1.15380997
Ti      0.00074042    -2.86346457     8.50228765    -0.07540740    -0.85530272     1.92338694
Ti      1.93336300    -1.20323302     3.65021699    -1.30565655     0.08852877     0.74515534
O       1.51212145    -1.01879755     5.81622160     0.88620380    -0.82659300    -1.08256622
O       3.53303101     0.90873000     1.06972800     0.37442912     1.18310076    -1.59908046
O      -1.97028756     2.73099647     5.60808063    -0.16242847     4.32114336     0.08163436
O      -0.14023102     4.81159500     0.70733599    -0.05314729    -0.42359275    -0.22232852
O      -1.61195053    -0.91305253     5.77742460    -1.11691771    -0.41200786    -1.30616897
O       0.13291398     1.00101598     0.95074101    -0.62262397    -0.85790288    -1.07049154
O       3.94663743     2.88267947     8.91720061    -0.69424722     0.07077658    -0.33064142
O       5.50571198     4.80478602     4.08409699     0.37515957    -0.73434744    -0.20088474
O      -3.41600753    -1.06888857     8.89549264    -0.60538009     1.31117800    -0.42926126
O       5.67052498     1.09246098     4.00190100    -0.00199775    -1.41287673    -0.55472445
O       0.12013943     2.88809343     9.05957564     0.43712781    -0.70045875    -0.04721370
O       1.85625701     4.37787900     4.28504898     0.45006715     1.29928510     0.25499002
O      -0.02632953    -0.84297857     9.02804361    -0.02828472    -0.55976125    -1.77299894
O       1.93084502     0.96133700     4.24376902     0.06402409     0.87460992    -1.92816739
O       1.89419743     0.91252844     8.16150263     0.69038439    -0.07411028    -0.07552413
O       3.69793100     2.80659098     3.01254200     0.86233109     0.46014845     1.99667318
O       1.96163747    -2.69657656     8.20022962     0.27156670    -0.47310295    -0.13399206
O       3.77781999    -0.78028302     3.27376199    -1.18114029    -1.02166550     0.97118573
O      -1.82893855     1.04055245     7.97395465    -0.61805872     0.01140902     0.86250336
O       0.03325900     2.87905302     3.09935501    -0.96028425    -0.14537948    -0.11605167
O      -1.76621956     4.43418245     8.07146963    -2.42384233     0.82863086     0.35949872
O       0.04199699    -0.92063998     3.24380198     0.19257878    -0.44586468    -0.16725315
O       3.84410743     4.82011343     6.45945465    -1.12663391    -0.29537950     0.73134568
O       5.64898000     6.85337599     1.69107798     0.81954689    -0.78725717     0.22184540
O       3.66767143     1.02922843     6.44504865     1.22876871     0.10150745     0.25492189
O       5.59570799     2.92853601     1.50414702     0.97996579     0.06952394    -1.05158287
O      -0.00731757     4.57431245     6.67583761     1.49667184    -0.32351200    -1.95902656
O       1.88344402     6.46270798     1.40023698     0.21839421    -0.48882063     2.03724494
O       0.09322844     1.18275846     6.45219264    -0.61173586     0.70119306    -0.01070659
O       1.87877699     3.05496498     1.47926002     0.18886148     0.37764454     0.53368640
