# total energy = -19518.40778197 eV

CRYSTAL
PRIMVEC
        7.60600008     0.00000000     0.00000000
        0.00000000     7.60600008     0.00000000
       -1.89786986    -1.89786986     4.85670466
PRIMCOORD
23 1
Ti      3.80036500     6.66817099     1.20998701    -1.16828194     0.98573355     0.08354469
Ti      3.84653598     2.79808202     1.28144399    -1.54651347    -0.66685596    -0.65239967
Ti     -0.06269798     6.52487699     1.16512501     1.04421408     1.12602893    -0.24109526
Ti      0.04535599     2.75637899     1.17242601     1.14438122    -0.57172845     0.68221008
Ti      5.60146221     2.87121622     3.62277582     1.14371607     0.61028216     0.40559476
Ti      5.72178723    -0.83828979     3.58992381    -0.63089521    -1.27938141     1.01925561
Ti      2.03026821     2.84417923     3.82285382    -0.52752732     0.49613259    -2.95220705
Ti      1.83490523    -0.89257078     3.55778380     0.47323768    -0.60607095     0.95081487
O       3.54912101     4.80246701     0.72504702     0.35421844    -0.54852141     2.25467885
O       3.75595798     0.87079302     0.77069401     0.17261802     1.47883147     0.39542579
O       0.18349301     4.72730198     0.65682401    -0.56300392     0.13654851     1.44720072
O      -0.00071598     0.88250599     0.72511402    -0.56874366    -0.23989430     0.25150078
O       5.75529224     4.70336322     3.92608683    -0.05127784     0.35369317     0.48457651
O       5.92813921     0.91111924     4.19042981    -0.33993725     1.04902282    -2.30229672
O       2.07466624     4.81752321     3.94505482    -0.78941355    -0.91744065     0.70123111
O       1.74542221     0.95769620     4.14930480     0.13950117     0.40470053     0.06751591
O       3.82019322     2.96223323     3.25048380     0.03364984    -0.79093796     0.08909159
O       3.66094225    -0.64700576     3.18076581     2.01248495    -0.37492946    -0.06571356
O      -0.06453978    -0.92300578     3.19587980    -0.24155266    -0.28278829    -0.33682749
O       5.64030599     6.71941599     1.65988499     0.42708276    -0.77543317    -0.78764360
O       5.77265100     2.92251001     1.65193299     0.24190182    -0.42583012    -0.48584226
O       1.80853898     6.60243601     1.68537101    -0.05774108     0.16840449    -1.33873406
O       1.87227600     2.59739298     1.75489702    -0.70211763     0.67043340     0.33011820
