# total energy = -4988.69392184 eV

CRYSTAL
PRIMVEC
        3.89955294     0.00000000     0.00000000
        1.32427958     3.66780544     0.00000000
       -2.61195184    -1.83392770     5.05707213
PRIMCOORD
6 1
Ti      0.99309726     2.75099477     1.26426809     0.00073482    -0.00073482     0.00000000
Ti      1.61878275    -0.91711750     3.79280415    -0.00073482     0.00073482     0.00000000
O       0.33111052     0.91694631     0.82375578    -0.00041009    -0.00049494    -1.36917465
O       2.28076931     0.91693083     4.23331657     0.00041009     0.00049494     1.36917465
O      -0.33107889    -0.91692415     3.35229185    -0.00049494    -0.00041009    -1.36917465
O       2.94295866     2.75080124     1.70478050     0.00049494     0.00041009     1.36917465
