# total energy = -19516.42840569 eV

CRYSTAL
PRIMVEC
        5.17600016     0.00000000     0.00000000
        0.00000000     5.50899976     0.00000000
        0.00000000     0.00000000     9.26300011
PRIMCOORD
23 1
Ti      1.87235998     3.21512000     3.37330499     1.32000640    -1.15124452     3.76948597
Ti      3.29939301     2.28284399     5.95526600    -0.04426413     0.45383510    -3.21352250
Ti      4.45213998     1.98836701     1.53164698    -0.84539909     0.42483150    -1.68824070
Ti      0.95993499     3.28959201     7.71007200    -0.90327078     0.90901566     1.04560171
Ti      1.90574201     0.18442399     1.39981199     0.74024376     0.53072088    -2.09262781
Ti      3.22913901     5.32976801     7.91790599     0.56009575    -1.11753426     0.41659934
Ti      0.67235298     0.61736400     5.94049100    -0.95121622    -1.54381484    -3.08642537
Ti      4.53602902     4.85082402     3.40772099    -0.71042358    -0.52265482     4.87860501
O       1.89396501     1.81262100     4.77338703    -1.78853201     0.10678310    -0.35650621
O       3.55614002     3.49716798     4.42259199     0.51201456     0.09760014    -0.44228699
O       5.06558500     2.60884400     9.14572099     0.80933524     0.01425420     0.22710768
O       3.43972298     0.71528503     0.31376401     0.23997066    -0.50040834    -0.39252147
O       1.63315000     4.71376600     8.87319200     1.08483701     0.13801918     2.15182311
O       4.18189799     0.68416099     4.84433202     0.36306767     0.21930644     0.02423368
O       0.92076498     4.80879200     4.44632199     0.95669627    -1.30695161     0.19969971
O       0.30103798     3.32076701     2.45181901    -1.32645267     0.34012262    -0.73447934
O       5.09528401     2.28967000     6.45866702     0.60994200     0.38317987     0.94296735
O       2.64736699     1.91080402     2.20500101    -0.09802694    -0.20531655    -0.58683369
O       2.63368998     3.91555901     6.70606601    -0.91100029    -0.83747983     1.35149059
O       0.20592700     0.56177901     2.29239997     0.89373919     1.29727809    -2.12041810
O       5.06700600     4.80214400     7.21342401    -0.60547959     0.97438084    -0.18018580
O       2.22176402     1.12477900     7.11252700    -0.40836924     1.11248693     0.69853402
O       2.82257001     4.55939600     2.39770402     0.50248605     0.18359020    -0.81209943
