# total energy = -39032.34235559 eV

CRYSTAL
PRIMVEC
        5.93200024     0.00000000     0.00000000
        0.00000000     9.29399984     0.00000000
        0.00000000     0.00000000     9.29399984
PRIMCOORD
46 1
Ti      4.48261201     7.05305299     7.07080201    -1.09970828    -1.32397335     0.61050687
Ti      4.42282800     7.02057600     2.02077202     2.18621497     0.26889018     1.27083634
Ti      4.34358302     2.44361698     6.92425299     1.65062776    -1.81534400     1.01737433
Ti      4.64609100     2.09450499     2.80889401     3.27115997     1.49595965    -2.43469521
Ti      1.44826098     7.02524398     6.87381203     0.70215979    -0.05124416     2.12540450
Ti      1.57930500     6.68629701     2.33112898    -3.98157789     1.92989415    -0.08788085
Ti      1.44076201     2.23229798     6.98197702    -0.84308767    -0.73300379     0.73314237
Ti      1.61030500     2.59102602     1.89834798    -0.52658758    -0.05458994     0.55773162
Ti      3.12188902     4.59777601     4.60658602     0.29559804     1.58821241     0.78553067
Ti      2.99168803     4.85970901     9.19404900    -0.92498093     0.24886719    -1.20127692
Ti      2.89505401     9.16842798     4.69523702    -0.77130809     0.07217963     0.06156714
Ti      2.91019901     9.29146000     0.09799400     1.64653225     0.40163346    -1.42044195
Ti      0.20828401     4.70324601     4.72802802    -0.99180727     0.28591809    -1.01381206
Ti      5.90175702     4.45679001     9.18731601     0.44123155     0.11681374    -0.56146383
Ti      5.81893099     9.10562099     4.78752199     0.49948454     0.24370596    -1.09273648
Ti      5.90958202     9.26761601     0.13891199    -1.13612463    -0.66453451    -0.71506776
O       4.33037798     5.80889800     5.54530000     0.18505290    -1.23636298    -0.68636987
O       4.50767999     5.59984701     0.80284301    -0.33685552    -0.77876173     0.31721408
O       4.39214498     0.83352503     5.51716100     0.33362673     1.81691495     0.30896650
O       4.37495402     0.90392502     0.95858400    -0.19630406    -0.00056899     1.33989980
O       1.47943301     5.83889198     5.40395199     0.32549638    -0.98121561     0.11884440
O       1.40538899     5.43711500     0.93109002     0.62365833    -0.65438919    -0.21814456
O       1.49635398     0.79638102     5.78582900    -0.56831557     0.77255019    -1.40947259
O       1.45026301     0.69293300     0.96615103     0.82958988     3.24983883     1.65232880
O       4.46782902     8.49707499     8.47501099    -0.78706716    -1.24904726    -0.91183822
O       4.34141498     8.37624202     3.78454297     0.84804193     0.10553765    -0.39350003
O       4.26247798     3.70830102     8.34757897     0.35679700     0.28858175     0.93407030
O       4.58947200     3.98472099     3.78788198    -0.55704256    -2.35373629    -1.24206363
O       1.21633799     8.14365301     8.51605800     1.02495549     0.94259428    -0.20855897
O       1.45699002     8.45701600     3.72493999    -0.24679308     0.30233150     0.58863912
O       1.51345900     3.95684801     8.21844401    -0.15830494    -1.11446770     0.65317357
O       1.52465401     3.67173101     3.76375202    -0.02147669     1.08189130    -0.53674909
O       2.93614500     6.12174802     7.77585101    -0.61552053    -0.35155041     1.22305340
O       3.05876299     6.19489598     3.08761400     1.08066128    -2.19536682     2.03765195
O       2.94552202     1.43598602     8.00779601    -0.43985858     0.59663191    -1.13330618
O       3.00116702     1.89007699     2.96600901    -2.41774958    -1.97631903     1.49012607
O       5.67327501     5.87784101     7.90375002     0.83181183     0.99860347    -0.95045080
O       0.04149099     5.98730900     3.13988898     0.25759866     0.16159081     0.35491984
O       5.92067701     1.57990699     7.96727299     0.42607000    -0.10171931    -0.16409095
O       2.85374803     7.98715201     6.11085501     0.45746293    -0.22613709     0.31729173
O       2.94353200     7.79358998     1.24109099    -0.38237255    -0.43998431     0.65733593
O       3.00231798     3.24920600     6.05678802    -0.88415334     0.74772284    -1.16743451
O       5.86149600     8.03359102     6.33779701     0.48479119     0.25399680    -1.60184569
O       0.03239501     7.96695702     1.68049401    -0.42706914     0.14328815    -1.45410182
O       0.00004397     3.24608898     5.94505002    -0.22228789    -0.21391895     0.80850991
O       5.83193801     3.02936502     1.34506803    -0.22227067     0.40208752     0.64118220
