# total energy = -4946.69093382 eV

CRYSTAL
PRIMVEC
        4.57328553     0.00000000     0.00000000
       -0.00000648     2.46253866     0.00000000
       -2.28666816    -1.23132474     4.93366835
PRIMCOORD
6 1
Ti     -0.00019574     1.84698885     1.23341689    -0.02569973    -0.02609748    42.13230261
Ti      2.28680630    -0.61577478     3.70025106     0.02569973     0.02609748   -42.13230261
O       0.00004855     0.61562502     0.80365420     0.02552824     0.02549661   -30.81986256
O       2.28656191     0.61558895     4.13001385    -0.02552824    -0.02549661    30.81986256
O      -0.00001868    -0.61564172     3.27048838    -0.00123773     0.00001825    -0.08169580
O       2.28662903     1.84685569     1.66317968     0.00123773    -0.00001825     0.08169580
