# total energy = -19072.02714705 eV

CRYSTAL
PRIMVEC
        5.17600016     0.00000000     0.00000000
        0.00000000     5.50899976     0.00000000
        0.00000000     0.00000000     9.26300011
PRIMCOORD
22 1
Ti      1.81403898     3.28500801     3.35911098    -1.67596985     0.15957712    -0.78800562
Ti      3.67058899     2.34504602     5.78723100    -0.50612107    -0.14657402    -0.51311396
Ti      4.29794799     2.11677298     1.61008603     1.06995855    -1.70693674     0.91428308
Ti      0.97991202     3.26448303     8.22537999     0.17176570    -0.37561131     0.67897615
Ti      1.80883802     0.34145802     1.23127100    -1.46387227     1.47080499    -0.78541780
Ti      3.51860003     5.32000702     7.86771099    -0.71937462     0.57469962    -0.30120510
Ti      1.10815500     5.43080599     6.19874902     0.12002145     0.16395160    -1.64531637
Ti      4.21488002     5.04068297     3.49893098     0.49440250     1.82316864     0.93724227
O       3.09469000     3.84448600     4.52612901     1.59702589    -0.75607482     1.82050704
O       0.64422499     2.32656202     0.60919700     0.74470539     0.52561159    -2.66598223
O       4.60846999     3.53484000     7.34432299    -0.33022438     0.79801930    -0.51472039
O       3.40808998     0.87939803     0.28131100     0.99912823     0.09465700    -1.87036691
O       1.57988900     4.92175901     8.82311898    -0.63430810     0.77393268     1.54186594
O       3.81165299     1.25754100     4.33551000     0.64996664     0.06207082     0.36038652
O       0.86184199     4.99522998     4.38787097    -0.61458002    -0.32494668     2.02671627
O       4.98887001     3.59807800     2.72366599     1.35261879    -3.12846549    -1.08452977
O       4.84459201     0.90949900     6.72505601     0.40755548    -0.43863808     1.27744845
O       2.47776500     1.76856900     2.28427102    -0.06656769     2.56286013     1.31188659
O       2.24427400     4.10213098     6.91202698     0.28212494    -2.68078382    -0.90774631
O       0.13877901     0.49208499     2.16226402    -1.34549658     1.21095636    -0.50965454
O       2.52188801     1.06029801     6.62066300    -0.87843546     0.80238143     0.81286408
O       2.60731500     4.72016799     2.34315098     0.34567595    -1.46466006    -0.09611636
