# total energy = -19892.12148715 eV

CRYSTAL
PRIMVEC
        8.46235535     0.00000000     0.00000000
        0.00002631     3.00216838     0.00000000
        0.00000000     0.00000000    13.46289361
PRIMCOORD
24 1
Ti      3.06721219     1.77908210     4.99463762    -0.06990858     0.27626077     1.84493510
Ti      5.39516912     1.22308599     8.46825639     0.06990858    -0.27626077    -1.84493510
Ti      7.29824551     1.22308696     1.73675560    -0.06913879    -0.27654102    -1.84365571
Ti      1.16413585     1.77908125    11.72613853     0.06913879     0.27654102     1.84365571
Ti      3.06719938     0.27799797     1.73680959    -0.06943961     0.27415966    -1.84271469
Ti      5.39518198     2.72417024    11.72608454     0.06943961    -0.27415966     1.84271469
Ti      1.16412299     0.27799694     8.46820240     0.06931388     0.27410155    -1.84451241
Ti      7.29825838     2.72417126     4.99469161    -0.06931388    -0.27410155     1.84451241
O       2.67839803     1.05711443     6.87001172     3.10984273     0.17568663    -0.86671508
O       5.78398334     1.94505372     6.59288229    -3.10984273    -0.17568663     0.86671508
O       1.55284739     1.05712662     0.13860806    -3.10701220     0.17599131    -0.86896249
O       6.90953403     1.94504153    13.32428555     3.10701220    -0.17599131     0.86896249
O       5.78397047     0.44396947     0.13856434    -3.10852581    -0.17536550    -0.86940317
O       2.67841089     2.55819862    13.32432927     3.10852581     0.17536550     0.86940317
O       6.90952117     0.44395734     6.87005538     3.11093185    -0.17546757    -0.86833488
O       1.55286008     2.55821081     6.59283863    -3.11093185     0.17546757     0.86833488
O       0.30747274     1.82608899     3.63666350    -0.83602201     0.37423423     2.20829536
O       8.15490863     1.17607910     9.82623045     0.83602201    -0.37423423    -2.20829536
O       4.53866160     1.17605128     3.09482628    -0.83727414    -0.37426251    -2.21002211
O       3.92371977     1.82611687    10.36806750     0.83727414     0.37426251     2.21002211
O       0.30745987     0.32500480     3.09478331    -0.83582790     0.37543417    -2.20981719
O       8.15492150     2.67716335    10.36811047     0.83582790    -0.37543417     2.20981719
O       3.92370696     0.32503263     9.82627337     0.83689233     0.37540743    -2.20756362
O       4.53867441     2.67713547     3.63662053    -0.83689233    -0.37540743     2.20756362
