# total energy = -19517.98400270 eV

CRYSTAL
PRIMVEC
        5.17600016     0.00000000     0.00000000
        0.00000000     5.50899976     0.00000000
        0.00000000     0.00000000     9.26300011
PRIMCOORD
23 1
Ti      1.81069903     3.24577899     3.40102801     0.02626331     0.68043653     2.12202659
Ti      3.30382698     2.18902102     5.81853300     1.85373084     0.78085075    -1.73718501
Ti      4.30991697     2.03417201     1.52194901     1.63338336    -0.31987209    -0.63484417
Ti      0.84622798     3.34094099     7.86325399    -1.10458284     0.96396375     0.29764155
Ti      1.93326299     0.34644700     1.36545701     0.76635692    -1.06039456    -1.26648526
Ti      3.35670603     5.14691298     7.96540600    -0.47808807    -1.15537757     0.68045710
Ti      0.80185901     0.62445699     5.82669402    -1.50781629    -0.84004219    -1.99216346
Ti      4.49758598     4.87438400     3.44055300     0.22375599     0.72946466     2.24398922
O       1.74755199     1.87193499     4.73175702    -0.23555865    -0.15273027    -0.92987811
O       3.51560901     3.49838202     4.46680300     0.05038027     0.41112778    -0.07014923
O       4.88651401     2.75960898     0.00535803     0.93093792     0.94942236    -1.58611079
O       3.64639898     0.58304501     0.22947099    -0.05533299     0.57022436     0.28403861
O       1.71002602     4.73320602     9.07815601     0.01198469    -0.33069901     0.28358070
O       4.32671401     0.77659301     4.67990998    -0.67220617     0.31973068     0.52488345
O       0.96699099     4.69240798     4.51473598     0.37056604    -0.68602406    -0.11217573
O       0.04142198     3.34130199     2.55163100     1.20952374    -0.06302753    -0.34507225
O       0.02421499     2.30264199     6.46114802    -0.66576119    -0.20738372     1.43672064
O       2.58857699     2.06980998     2.07852198    -1.26441064     0.30138688    -0.33977964
O       2.51977998     3.48872199     6.97354299     0.54060704    -0.28677530     1.10195594
O       0.31240201     0.76096202     2.22071202    -0.43665473    -1.02349484    -0.24959610
O       5.11554002     4.85774502     7.22154699    -0.39617346     0.43748571    -0.07416478
O       2.49216100     0.69402501     6.76625802    -0.17646130     0.17158418     0.98215252
O       2.81644098     4.76407901     2.51413000    -0.62444406    -0.18985650    -0.61984229
