# total energy = -19895.83178128 eV

CRYSTAL
PRIMVEC
        8.76772500     0.00000000     0.00000000
        0.00002871     3.99921880     0.00000000
        0.00000000     0.00000000    13.34379217
PRIMCOORD
24 1
Ti      3.17789548     2.36993337     4.95045173     0.22734757    -0.31220377     2.79565715
Ti      5.58985784     1.62928549     8.39334064    -0.22734757     0.31220377    -2.79565715
Ti      7.56160792     1.62928685     1.72139109     0.22022227     0.31283986    -2.79628167
Ti      1.20614541     2.36993214    11.62240141    -0.22022227    -0.31283986     2.79628167
Ti      3.17788132     0.37032404     1.72144462     0.22734757    -0.31220377    -2.79565715
Ti      5.58987201     3.62889489    11.62234788    -0.22734757     0.31220377     2.79565715
Ti      1.20613125     0.37032255     8.39328711    -0.22022227    -0.31283986    -2.79628167
Ti      7.56162208     3.62889638     4.95050526     0.22022227     0.31283986     2.79628167
O       2.77505033     1.40819291     6.80923506     1.30338061     1.01807238    -2.36156890
O       5.99270300     2.59102589     6.53455731    -1.30338061    -1.01807238     2.36156890
O       1.60888345     1.40820904     0.13738181    -1.30256865     1.01790912    -2.36099529
O       7.15886994     2.59100982    13.20641018     1.30256865    -1.01790912     2.36099529
O       5.99268890     0.59141649     0.13733852    -1.30338061    -1.01807238    -2.36156890
O       2.77506443     3.40780237    13.20645346     1.30338061     1.01807238     2.36156890
O       7.15885584     0.59140036     6.80927834     1.30256865    -1.01790912    -2.36099529
O       1.60889742     3.40781851     6.53451402    -1.30256865     1.01790912     2.36099529
O       0.31856906     2.43255156     3.60449120    -2.08356672     0.61842819     0.03066016
O       8.44918427     1.56666724     9.73930117     2.08356672    -0.61842819    -0.03066016
O       4.70244271     1.56662998     3.06744741    -2.08316538    -0.61826029    -0.03115715
O       4.06531062     2.43258888    10.27634477     2.08316538     0.61826029     0.03115715
O       0.31855496     0.43294216     3.06740483    -2.08356672     0.61842819    -0.03066016
O       8.44919837     3.56627670    10.27638735     2.08356672    -0.61842819     0.03066016
O       4.06529652     0.43297942     9.73934369     2.08316538     0.61826029    -0.03115715
O       4.70245681     3.56623944     3.60444861    -2.08316538    -0.61826029     0.03115715
