# total energy = -19517.21496974 eV

CRYSTAL
PRIMVEC
        5.17600016     0.00000000     0.00000000
        0.00000000     5.50899976     0.00000000
        0.00000000     0.00000000     9.26300011
PRIMCOORD
23 1
Ti      1.89734302     3.20366601     3.34651100     0.53924101    -0.53327476     3.59917501
Ti      3.31790199     2.23837500     5.90126298     0.22655053     0.04039796    -3.51047989
Ti      4.44696102     2.11430902     1.54577898    -0.46583444    -0.45727524    -1.87588553
Ti      0.88125999     3.38782800     7.76453000    -1.09037157     0.27381822     0.65012990
Ti      1.95518997     0.22570801     1.31006501     0.09289271     0.42968858    -0.53774154
Ti      3.27226902     5.10130002     7.91300999    -0.25625758     1.54937511     0.50297893
Ti      0.67839899     0.68299098     5.86344898    -0.37025493    -1.27349821    -3.01447816
Ti      4.51525002     4.95574802     3.37364102     0.43383731    -0.14609888     4.69106250
O       1.67448901     1.91233598     4.85136902    -0.26503764     0.85221174    -1.25080076
O       3.50572498     3.54988297     4.50884201    -0.04505294    -0.17104784     0.03620423
O       0.29199598     2.52658901     0.03903899    -0.44061217    -0.16119434     0.50475813
O       3.47224801     0.73816898     0.30939898     0.15297555    -0.60045745    -1.52783388
O       1.62576602     4.69076399     9.00963602     0.57928801     0.34235460     0.61064957
O       4.20372798     0.81109601     4.81721100    -0.07491375    -0.19397798    -0.68921634
O       0.96473098     4.82254399     4.47500202    -0.10598348    -0.43999999    -0.16141726
O       0.14688802     3.31450499     2.69989900    -0.31132266    -0.02558763    -1.16150991
O       4.99610201     2.19070301     6.70761798     0.25967894     0.06466584     1.08078907
O       2.60767801     1.84329100     2.21076301    -0.01120513     1.00900050     0.24818071
O       2.53146702     3.62305797     6.91944398     0.18455514    -0.12099667     1.13324319
O       0.13838398     0.66609303     2.20045500     1.40472916    -0.40333553    -0.91493460
O       5.02124799     4.79302802     6.99791298    -0.66400923    -0.07055290     1.66624979
O       2.36786102     0.82451102     6.84658300     0.41022300    -0.54322056     1.79510761
O       2.84941502     4.56533401     2.45288499    -0.18311609     0.57900596    -1.87423077
