# total energy = -19923.05634593 eV

CRYSTAL
PRIMVEC
        4.72897162     0.00000000     0.00000000
        1.70924764     4.73393364     0.00000000
        0.00000000     0.00000000     8.60050358
PRIMCOORD
24 1
Ti      2.72692341     2.80532462     3.19072550     4.76429166    -2.92998037     1.06119983
Ti      3.71129603     1.92860890     5.40977817    -4.76429166     2.92998037    -1.06119983
Ti      4.77478238     1.92861050     1.10949200    -9.25838754     2.00208226     3.09225946
Ti      1.66343708     2.80532315     7.49101177     9.25838754    -2.00208226    -3.09225946
Ti      1.87229970     0.43835792     1.10952648     4.76410320    -2.92851870    -1.06797546
Ti      4.56591975     4.29557568     7.49097729    -4.76410320     2.92851870     1.06797546
Ti      0.80881328     0.43835618     5.40974369     9.25757764    -2.00143126     3.10223766
Ti      5.62940618     4.29557747     3.19075998    -9.25757764     2.00143126    -3.10223766
O       2.09860457     1.66689845     4.38877115    -2.70906725    -1.14380246    -1.20294248
O       4.33961487     3.06703506     4.21173253     2.70906725     1.14380246     1.20294248
O       1.46962617     1.66691755     0.08854703     2.36366255    -0.63801897    -1.98769925
O       4.96859333     3.06701600     8.51195641    -2.36366255     0.63801897     1.98769925
O       3.48499115     0.70006827     0.08851912     2.70785754     1.14306352    -1.20334666
O       2.95322829     4.03386524     8.51198432    -2.70785754    -1.14306352     1.20334666
O       4.11396960     0.70004916     4.38879906    -2.36513374     0.63838510    -1.98910076
O       2.32424979     4.03388435     4.21170462     2.36513374    -0.63838510     1.98910076
O       1.21147575     2.87944671     2.32321058    -0.58050594    -4.19429279    -4.24993354
O       5.22674369     1.85448680     6.27729309     0.58050594     4.19429279     4.24993354
O       3.20588016     1.85444270     1.97706859     2.24392777    -4.24020474    -4.71920658
O       3.23233927     2.87949081     6.62343494    -2.24392777     4.24020474     4.71920658
O       0.35685203     0.51247993     1.97704111    -0.58096849    -4.19507929     4.24789594
O       6.08136741     4.22145358     6.62346242     0.58096849     4.19507929    -4.24789594
O       2.37771556     0.51252402     6.27732048    -2.24535371     4.24114602    -4.71791357
O       4.06050388     4.22140949     2.32318315     2.24535371    -4.24114602     4.71791357
