# total energy = -19872.87636468 eV

CRYSTAL
PRIMVEC
        9.75629326     0.00000000     0.00000000
        0.00003072     3.93862457     0.00000000
        0.00000000     0.00000000    15.10030948
PRIMCOORD
24 1
Ti      3.53620540     2.33402522     5.60210714     0.29505194    -0.19720034     2.31889834
Ti      6.22011886     1.60459921     9.49820248    -0.29505194     0.19720034    -2.31889834
Ti      8.41418552     1.60460055     1.94798734     0.29528154     0.19706587    -2.31981237
Ti      1.34213874     2.33402409    13.15232241    -0.29528154    -0.19706587     2.31981237
Ti      3.53619017     0.36471301     1.94804788     0.29549931    -0.19727979    -2.31920250
Ti      6.22013408     3.57391157    13.15226188    -0.29549931     0.19727979     2.31920250
Ti      1.34212352     0.36471159     9.49814194    -0.29505554    -0.19679719    -2.32006588
Ti      8.41420074     3.57391298     5.60216768     0.29505554     0.19679719     2.32006588
O       3.08793936     1.38685664     7.70557232     0.56152580     0.82515704    -2.38627927
O       6.66838496     2.55176780     7.39473729    -0.56152580    -0.82515704     2.38627927
O       1.79028616     1.38687250     0.15546615    -0.55955376     0.82522980    -2.38602756
O       7.96603823     2.55175193    14.94484305     0.55955376    -0.82522980     2.38602756
O       6.66836974     0.58245551     0.15541717    -0.56027135    -0.82520409    -2.38569254
O       3.08795452     3.35616893    14.94489203     0.56027135     0.82520409     2.38569254
O       7.96602301     0.58243964     7.70562137     0.56016311    -0.82511333    -2.38541460
O       1.79030117     3.35618486     7.39468824    -0.56016311     0.82511333     2.38541460
O       0.35448741     2.39569472     4.07897029    -1.88775246     0.57488834    -0.03279160
O       9.40183685     1.54292971    11.02133932     1.88775246    -0.57488834     0.03279160
O       5.23264689     1.54289310     3.47123247    -1.88949413    -0.57471016     0.03458932
O       4.52367744     2.39573140    11.62907687     1.88949413     0.57471016    -0.03458932
O       0.35447219     0.42638244     3.47118424    -1.88773549     0.57469473     0.03421548
O       9.40185207     3.51224200    11.62912510     1.88773549    -0.57469473    -0.03421548
O       4.52366222     0.42641905    11.02138741     1.88999395     0.57503283     0.03207812
O       5.23266211     3.51220539     4.07892214    -1.88999395    -0.57503283    -0.03207812
