# total energy = -19883.28151642 eV

CRYSTAL
PRIMVEC
        6.97950210     0.00000000     0.00000000
        0.00002197     2.81763142     0.00000000
        0.00000000     0.00000000    10.80252909
PRIMCOORD
24 1
Ti      2.52974694     1.66972574     4.00766126    -1.21877457     0.69244642    -1.61764898
Ti      4.44977734     1.14790559     6.79486793     1.21877457    -0.69244642     1.61764898
Ti      6.01937887     1.14790655     1.39356017    -1.21659273    -0.69261765     1.62021185
Ti      0.96014541     1.66972492     9.40896911     1.21659273     0.69261765    -1.62021185
Ti      2.52973605     0.26091007     1.39360348    -1.21877457     0.69244642     1.61764898
Ti      4.44978823     2.55672135     9.40892580     1.21877457    -0.69244642    -1.61764898
Ti      0.96013452     0.26090906     6.79482462     1.21659273     0.69261765     1.62021185
Ti      6.01938976     2.55672236     4.00770457    -1.21659273    -0.69261765    -1.62021185
O       2.20906431     0.99213590     5.51244789     8.82696784    -1.69629931     4.91894949
O       4.77046001     1.82549542     5.29008129    -8.82696784     1.69629931    -4.91894949
O       1.28074318     0.99214725     0.11121809    -8.82672050    -1.69677111     4.91858671
O       5.69878120     1.82548407    10.69131080     8.82672050     1.69677111    -4.91858671
O       4.77044912     0.41667971     0.11118305    -8.82696784     1.69629931     4.91894949
O       2.20907515     2.40095162    10.69134584     8.82696784    -1.69629931    -4.91894949
O       5.69877031     0.41666836     5.51248298     8.82672050     1.69677111     4.91858671
O       1.28075392     2.40096302     5.29004620    -8.82672050    -1.69677111    -4.91858671
O       0.25359484     1.71384315     2.91803259     3.14478866    -1.22802489     2.40249471
O       6.72592944     1.10378818     7.88449659    -3.14478866     1.22802489    -2.40249471
O       3.74335508     1.10376199     2.48326630     3.14882170     1.22836427    -2.40206225
O       3.23616924     1.71386939     8.31926269    -3.14882170    -1.22836427     2.40206225
O       0.25358395     0.30502743     2.48323180     3.14478866    -1.22802489    -2.40249471
O       6.72594033     2.51260389     8.31929719    -3.14478866     1.22802489     2.40249471
O       3.23615835     0.30505363     7.88453099    -3.14882170    -1.22836427    -2.40206225
O       3.74336597     2.51257770     2.91799814     3.14882170     1.22836427     2.40206225
