# total energy = -19950.45630299 eV

CRYSTAL
PRIMVEC
        5.64370320     0.00000000     0.00000000
        1.18945653     5.88765816     0.00000000
        0.00000000     0.00000000    10.15237655
PRIMCOORD
24 1
Ti      2.75044171     3.48902078     3.76645942     0.28769035    -1.74958313     0.86654565
Ti      4.08271774     2.39863753     6.38591754    -0.28769035     1.74958313    -0.86654565
Ti      5.35191534     2.39863964     1.30968849    -0.63323723    -0.36934836     0.09585565
Ti      1.48124413     3.48901889     8.84268858     0.63323723     0.36934836    -0.09585565
Ti      2.15571358     0.54519191     1.30972920     0.28769035    -1.74958313    -0.86654565
Ti      4.67744589     5.34246656     8.84264787    -0.28769035     1.74958313     0.86654565
Ti      0.88651591     0.54518964     6.38587683     0.63323723     0.36934836     0.09585565
Ti      5.94664356     5.34246884     3.76650013    -0.63323723    -0.36934836    -0.09585565
O       2.20509546     2.07314455     5.18068020     1.33895672     1.59382461    -0.55596733
O       4.62806399     3.81451375     4.97169676    -1.33895672    -1.59382461     0.55596733
O       1.45444952     2.07316826     0.10452442    -0.51530737     0.06948280     0.70571357
O       5.37871000     3.81449009    10.04785225     0.51530737    -0.06948280    -0.70571357
O       4.03333585     0.87068472     0.10449146    -1.33895672    -1.59382461    -0.55596733
O       2.79982360     5.01697359    10.04788521     1.33895672     1.59382461     0.55596733
O       4.78398185     0.87066106     5.18071316     0.51530737    -0.06948280     0.70571357
O       2.04917755     5.01699731     4.97166380    -0.51530737     0.06948280    -0.70571357
O       0.92854362     3.58120738     2.74241029     0.25218598     0.86620780     0.92544296
O       5.90461583     2.30645093     7.40996667    -0.25218598    -0.86620780    -0.92544296
O       3.49286200     2.30639593     2.33381049     0.78782332     0.92166626     0.17359889
O       3.34029745     3.58126237     7.81856630    -0.78782332    -0.92166626    -0.17359889
O       0.33381547     0.63737834     2.33377805     0.25218598     0.86620780    -0.92544296
O       6.49934398     5.25028002     7.81859874    -0.25218598    -0.86620780     0.92544296
O       2.74556930     0.63743328     7.40999905    -0.78782332    -0.92166626     0.17359889
O       4.08759015     5.25022503     2.74237785     0.78782332     0.92166626    -0.17359889
