# total energy = -4974.96433792 eV

CRYSTAL
PRIMVEC
        2.52179077     0.00000000     0.00000000
        0.00000000     3.95126807     0.00000000
        0.00000000    -0.00005128     3.95126807
PRIMCOORD
6 1
Ti      1.26089534     1.97560835     1.97563399     0.00000000     0.00000000     0.00000000
Ti      0.00000000     0.00000000     0.00000000     0.00000000     0.00000000     0.00000000
O       1.26089534     0.77003395     0.77004394     0.00000000     3.28334881     3.28334881
O       1.26089534     3.18118276     3.18122404     0.00000000    -3.28334881    -3.28334881
O       0.00000000     1.20555362     2.74567873     0.00000000    -3.28133306     3.28133306
O       0.00000000     2.74566309     1.20558925     0.00000000     3.28133306    -3.28133306
