# total energy = -39034.60496222 eV

CRYSTAL
PRIMVEC
        5.93200024     0.00000000     0.00000000
        0.00000000     9.29399984     0.00000000
        0.00000000     0.00000000     9.29399984
PRIMCOORD
46 1
Ti      4.46647401     6.95771699     6.80595600    -0.41292086    -0.01298793     1.60559076
Ti      4.40654299     6.83094502     2.46310800     0.75717653     0.19962695     0.15889938
Ti      4.44534799     2.22453802     6.95043800     0.11772469     0.11195821    -0.01688213
Ti      4.23858801     2.72237099     2.07870402    -0.50620541    -1.70907101     0.73604386
Ti      1.50593098     6.93354402     7.04341201     0.94869885    -0.13775205     0.45777866
Ti      1.37270298     7.21564402     2.09640701    -0.63842418    -1.29139078     0.32461218
Ti      1.58272899     2.37190298     6.99432902    -0.01805944     0.18800479     0.09655422
Ti      1.19773899     2.04514302     2.57383898     1.22441737     1.03024373    -0.98249267
Ti      2.96065099     4.64902699     4.61015400    -0.97788294    -0.36563800    -0.67322227
Ti      2.99309299     4.86883399     9.17592298    -0.37379432    -0.60753956     0.86488317
Ti      3.05950299     9.27136502     4.63007202     0.41540918     0.54396721    -0.53465956
Ti      2.99563299     9.23297401     9.24241400     0.20730941     0.51447459     0.74717134
Ti      5.92373899     4.62630798     4.86003398     0.75348572    -0.28280525    -1.11178579
Ti      5.91983102     4.69371701     9.22224197     0.24708053    -0.52292967     0.35527311
Ti      0.15752501     9.05491698     4.86448198    -0.81210278     1.32313774    -0.55724362
Ti      5.89670602     0.05114800     9.14390998    -0.20693891    -0.09367278     1.21748130
O       4.35941198     5.42766199     5.70839301     0.65656537     0.50448559    -0.99531605
O       4.51175200     5.58596399     0.94142601    -0.38136827    -0.96698994     0.08352257
O       4.43632800     0.70916398     5.59497101     1.00787076     2.33396630     0.90620004
O       4.43885599     1.04184697     0.79808698    -0.02237503    -0.28879104    -0.15683324
O       1.46121402     5.53989101     5.58708299     0.50134293     0.18390414     0.05053017
O       1.56632799     5.84713799     0.75935200    -0.46016567    -1.22961872     0.52112192
O       1.51648399     0.85520902     5.65527102     0.30662319     0.63317270    -0.82126310
O       1.55874001     0.84649601     0.91713498    -1.23461848     0.28910626     0.59839826
O       4.47651002     8.27133300     8.37447102     0.25781335     0.80813530    -0.01286401
O       4.64287398     8.32122701     3.89638099    -1.63754572    -0.10325786    -1.46097232
O       4.46338600     3.82730198     8.41357299     0.45063022    -0.85234827     0.65087501
O       4.50963201     3.83109898     3.69273898    -0.77159863    -0.52585841    -0.03442940
O       1.52573602     8.49879899     8.22077900    -0.38316933    -0.98879034     0.47288133
O       1.55800599     8.30371500     3.92456603     0.04096232    -0.00745826    -1.78825973
O       1.63050999     3.74538100     8.44628699    -0.81944405    -0.11883335     0.75350371
O       1.39090499     3.60808099     3.89394503     0.05337329    -0.34317658    -0.27976492
O       3.07349100     6.00970198     7.83622002    -0.43379489     1.14459025    -0.80882333
O       2.85552998     5.97192402     3.23759098     0.63723504     0.64717159    -0.25904208
O       2.98581702     1.36023700     7.79362998     0.22612784     0.21898402     0.46277097
O       2.95688398     1.54078301     3.11413599     0.07184128    -0.35711968     0.46613526
O       0.07805603     5.99030399     7.85994097    -0.22804794     0.07943838     0.11376570
O       0.02020002     6.15740102     3.27930798    -0.25491983    -0.22552851    -0.45200165
O       0.03523601     1.32686099     7.82069502    -0.05190879     0.79620487    -0.01772211
O       3.05410797     7.90404499     6.16690298    -0.69587421    -0.10969076    -1.07370722
O       2.96953000     7.90651799     1.35132200     0.08553935    -0.03815853     1.05369734
O       3.09317501     3.39185001     6.26890401    -0.73908985    -1.52383145    -0.98290611
O       0.09162302     7.72447700     6.06781401    -0.13087203    -0.07767203     0.30445009
O       5.70611199     7.81033399     1.28897503     1.63578400     0.62906176     1.12054065
O       0.02228799     3.22456300     6.23475900    -0.14884456     0.48667376    -1.00537781
O       5.87925402     3.18464399     1.48296098     1.73695515     0.11460182    -0.09711266
