# total energy = -19889.84889421 eV

CRYSTAL
PRIMVEC
        9.00580917     0.00000000     0.00000000
        0.00002835     3.63565345     0.00000000
        0.00000000     0.00000000    13.93874721
PRIMCOORD
24 1
Ti      3.26418960     2.15448482     5.17117582     0.18293380    -0.13174877     2.42809442
Ti      5.74164818     1.48116850     8.76757152    -0.18293380     0.13174877    -2.42809442
Ti      7.76694048     1.48116974     1.79814216     0.18310992     0.13176549    -2.42860915
Ti      1.23889730     2.15448377    12.14060531    -0.18310992    -0.13176549     2.42860915
Ti      3.26417555     0.33665816     1.79819804     0.18293380    -0.13174877    -2.42809442
Ti      5.74166223     3.29899529    12.14054942    -0.18293380     0.13174877     2.42809442
Ti      1.23888325     0.33665686     8.76751564    -0.18310992    -0.13176549    -2.42860915
Ti      7.76695453     3.29899660     5.17123170     0.18310992     0.13176549     2.42860915
O       2.85040557     1.28017536     7.11283599     1.35804742     0.72919881    -2.20705120
O       6.15543227     2.35547796     6.82591134    -1.35804742    -0.72919881     2.20705120
O       1.65257184     1.28019000     0.14350722    -1.35789573     0.72943895    -2.20774977
O       7.35326606     2.35546332    13.79523974     1.35789573    -0.72943895     2.20774977
O       6.15541822     0.53765124     0.14346201    -1.35804742    -0.72919881    -2.20705120
O       2.85041955     3.09800209    13.79528495     1.35804742     0.72919881     2.20705120
O       7.35325201     0.53763659     7.11288127     1.35789573    -0.72943895    -2.20774977
O       1.65258570     3.09801679     6.82586607    -1.35789573     0.72943895     2.20774977
O       0.32721915     2.21141051     3.76520335    -1.76311434     0.53292792     0.17973740
O       8.67861863     1.42424281    10.17354399     1.76311434    -0.53292792    -0.17973740
O       4.83013559     1.42420902     3.20421458    -1.76292407    -0.53289450    -0.17988216
O       4.17570225     2.21144437    10.73453250     1.76292407     0.53289450     0.17988216
O       0.32720510     0.39358379     3.20417007    -1.76311434     0.53292792    -0.17973740
O       8.67863268     3.24206954    10.73457701     1.76311434    -0.53292792     0.17973740
O       4.17568820     0.39361758    10.17358838     1.76292407     0.53289450    -0.17988216
O       4.83014964     3.24203574     3.76515889    -1.76292407    -0.53289450     0.17988216
