# total energy = -19961.34849708 eV

CRYSTAL
PRIMVEC
        7.60600008     0.00000000     0.00000000
        0.00000000     7.60600008     0.00000000
       -1.89786986    -1.89786986     4.85670466
PRIMCOORD
24 1
Ti      3.75686700     6.58551398     1.25918901     0.13616310    -0.90276556    -0.37925663
Ti      3.73623698     2.76618501     1.24002200     0.21751875     1.03614904    -0.18085146
Ti      0.05367498     6.72723400     1.20822501    -0.29084664    -0.25698494    -0.09137395
Ti     -0.01684202     2.93246701     1.12825500     0.13102732     0.27858247     0.44148480
Ti      5.72469124     3.01148021     3.60229380     0.48312846    -0.59549908    -0.00071631
Ti      5.71486421    -0.89225079     3.59318380     0.76672484     0.22134610     0.35765678
Ti      1.84697921     2.74948122     3.63293581    -0.36891179     0.15987485     0.22022767
Ti      1.89340525    -1.08130280     3.69133682    -0.63278523     0.07058144    -0.32514568
O       3.61570802     4.73944502     0.76779502     0.70744624    -0.84690036    -0.00174115
O       3.70554099     0.89958302     0.96231200     0.53443921    -0.43104869    -1.04050655
O       0.11805399     4.77908600     0.80314501    -0.34397002     0.87377431    -0.57593529
O       0.13487400     1.04882502     0.74514502    -0.72083912    -1.05285839    -0.02002659
O      -1.53567878     4.80306122     4.08073084    -1.42852190     0.30393073     0.32495491
O       5.73877921     1.03084723     4.00453381    -0.56524284    -0.51051149    -0.21395906
O       1.64296121     4.64122723     4.12678979     0.96552519     1.85496420    -0.09062036
O       1.97266521     0.86039024     4.01738980    -0.00012856    -0.20542016     0.52766153
O       3.74513721     2.88916120     3.14636082     1.06748181     0.22232749     1.03082146
O       3.82406722    -1.23949976     3.22485881    -0.27050381     0.38544296     0.40815172
O      -0.04029277     2.89859220     3.21983581     1.02248594    -0.89777582    -0.52065733
O      -0.01751577    -0.90761577     3.22154479     0.63664163     0.32577637    -0.04873322
O       5.75476201     6.59350202     1.58408501    -0.77706685     0.39551295     0.00059778
O       5.77057599     3.10020900     1.62835402    -1.20166079    -0.66568482    -0.20874949
O       1.85343400     6.56750402     1.72221397     1.02288112     0.30455654     0.46173225
O       1.93269999     2.85137699     1.62712701    -1.09098684    -0.06737038    -0.07501556
