# total energy = -19944.05055871 eV

CRYSTAL
PRIMVEC
        4.71140719     0.00000000     0.00000000
        0.25058732     5.00809664     0.00000000
        0.00000000     0.00000000     8.43501963
PRIMCOORD
24 1
Ti      1.85615625     2.96779331     3.12933212     0.64488613     0.81665671    -0.86439852
Ti      3.10583806     2.04030314     5.30568760    -0.64488613    -0.81665671     0.86439852
Ti      4.16537385     2.04030486     1.08814403    -0.87154670    -1.05201944     1.54187005
Ti      0.79662052     2.96779179     7.34687578     0.87154670     1.05201944    -1.54187005
Ti      1.73086269     0.46374518     1.08817784     0.64496892     0.81552183     0.86388404
Ti      3.23113163     4.54435142     7.34684198    -0.64496892    -0.81552183    -0.86388404
Ti      0.67132695     0.46374332     5.30565375     0.87151071     1.05146331     1.54229814
Ti      4.29066742     4.54435328     3.12936597    -0.87151071    -1.05146331    -1.54229814
O       1.57942610     1.76343589     4.30432595    -2.23299518    -1.87301438    -0.36206160
O       3.38256821     3.24466057     4.13069377     2.23299518     1.87301438     0.36206160
O       0.95277805     1.76345610     0.08684325     2.15988249    -1.91371882    -0.24653829
O       4.00921631     3.24464040     8.34817623    -2.15988249     1.91371882     0.24653829
O       3.25727465     0.74061229     0.08681590     2.23287691     1.87293648    -0.36191504
O       1.70471967     4.26748416     8.34820358    -2.23287691    -1.87293648     0.36191504
O       3.88392275     0.74059213     4.30435335    -2.15985755     1.91336426    -0.24676892
O       1.07807152     4.26750442     4.13066637     2.15985755    -1.91336426     0.24676892
O       0.32359773     3.04620816     2.27850927    -0.98525532    -0.06698446    -1.07848536
O       4.63839664     1.96188829     6.15651049     0.98525532     0.06698446     1.07848536
O       2.62505275     1.96184163     1.93902741    -0.51351557    -1.01590263    -0.05863300
O       2.33694161     3.04625482     6.49599217     0.51351557     1.01590263     0.05863300
O       0.19830416     0.54215989     1.93900049    -0.98518616    -0.06677749     1.07765901
O       4.76369020     4.46593656     6.49601909     0.98518616     0.06677749    -1.07765901
O       2.21164805     0.54220655     6.15653737     0.51346800     1.01580261    -0.05788532
O       2.75034632     4.46588990     2.27848231    -0.51346800    -1.01580261     0.05788532
