# total energy = -19955.87652506 eV

CRYSTAL
PRIMVEC
        4.95672786     0.00000000     0.00000000
        0.78691913     5.21643635     0.00000000
        0.00000000     0.00000000     8.89664695
PRIMCOORD
24 1
Ti      2.26290297     3.09125530     3.30059259     1.23250401    -0.55001008     0.34157427
Ti      3.48074396     2.12518090     5.59605456    -1.23250401     0.55001008    -0.34157427
Ti      4.59544943     2.12518267     1.14769541    -1.84516778    -0.60323630     1.21654465
Ti      1.14819751     3.09125374     7.74895185     1.84516778     0.60323630    -1.21654465
Ti      1.86944352     0.48303722     1.14773108     1.23191754    -0.54523657    -0.32839144
Ti      3.87420342     4.73339914     7.74891617    -1.23191754     0.54523657     0.32839144
Ti      0.75473803     0.48303530     5.59601888     1.84578613     0.60852892     1.20081695
Ti      4.98890891     4.73340105     3.30062827    -1.84578613    -0.60852892    -1.20081695
O       1.84592325     1.83679585     4.53989088    -0.76873750    -0.35155864    -0.49740889
O       3.89772368     3.37964035     4.35675622     0.76873750     0.35155864     0.49740889
O       1.18664802     1.83681694     0.09159596     0.95344074    -0.94467919     0.08266460
O       4.55699897     3.37961931     8.80505094    -0.95344074     0.94467919    -0.08266460
O       3.50426422     0.77142212     0.09156710     0.76845468     0.35143934    -0.49721271
O       2.23938271     4.44501409     8.80507979    -0.76845468    -0.35143934     0.49721271
O       4.16353950     0.77140108     4.53991979    -0.95403801     0.94507719     0.08239617
O       1.58010738     4.44503518     4.35672736     0.95403801    -0.94507719    -0.08239617
O       0.65873820     3.17293228     2.40320634    -0.56478853    -0.43497194    -0.90085240
O       5.08490873     2.04350387     6.49344082     0.56478853     0.43497194     0.90085240
O       2.96672608     2.04345535     2.04514554     0.46360375    -0.90056315    -0.80051995
O       2.77692085     3.17298080     6.85150146    -0.46360375     0.90056315     0.80051995
O       0.26527873     0.56471405     2.04511709    -0.56516931    -0.43491126     0.90002168
O       5.47836819     4.65172210     6.85152986     0.56516931     0.43491126    -0.90002168
O       2.38346138     0.56476257     6.49346917    -0.46432238     0.90080381    -0.79992731
O       3.36018554     4.65167359     2.40317793     0.46432238    -0.90080381     0.79992731
