# total energy = -19959.46946610 eV

CRYSTAL
PRIMVEC
        7.60600008     0.00000000     0.00000000
        0.00000000     7.60600008     0.00000000
       -1.89786986    -1.89786986     4.85670466
PRIMCOORD
24 1
Ti      3.86620201     6.59440998     1.20489500     0.66587637     0.61739409    -1.47387386
Ti      3.73297100     2.77070699     1.23935598     2.96782059    -0.79434133    -0.21194408
Ti     -0.03296298     6.80361100     1.20898798    -0.45677002    -1.37743869    -0.44907239
Ti      0.11955098     2.93358399     1.22063602    -2.75458916     0.81077351     0.34331568
Ti      5.70126520     2.90088920     3.66750384    -2.64315108     1.78374642    -0.40846771
Ti      5.69825223    -0.75678977     3.67431080    -0.60136737    -1.93386264    -0.82221956
Ti      1.83707020     2.69590324     3.56404979     2.43009140     0.28871545     2.98085866
Ti      1.95218822    -1.01287579     3.54064280     0.28920962    -0.66251979     1.83416680
O       4.00271101     4.51492500     0.69967901    -1.62176994     2.20252451     0.31349113
O       4.00297798     0.87435602     0.67716299    -0.82017321    -0.80705930     0.88728829
O      -0.10717898     4.84029699     0.80510101     1.21275716    -1.67992729     1.12342132
O      -0.19392298     1.01375602     0.79279801     0.87821229     1.13451537     0.04539439
O       5.33766222     4.78606722     4.16096480     1.47761174     0.69040522    -0.57168963
O       5.48494522     1.06025620     4.16679681     1.13926857    -1.05825591    -0.17785484
O       2.24665424     4.64126020     4.07968180    -1.80356706    -0.04717565    -0.38893709
O       1.96897721     0.79500023     4.07336379    -0.97349998     1.14589174    -0.89455063
O       3.70064023     2.72964522     3.20562984    -0.06766735     0.01544899     0.16401536
O       3.87132222    -0.82559276     3.16938881    -0.10198002    -0.17394291    -0.28409441
O      -0.13776876     2.99082123     3.20518279     2.89748598    -0.15387878    -0.02591981
O       0.03200120    -0.91203477     3.22658981    -1.43770280     0.00590968     0.55501885
O       5.70388299     6.66295098     1.58883702     0.42358452    -0.05476606     1.40310911
O       5.57484402     2.88436199     1.78929402     1.52447834    -0.45445885    -0.83136857
O       1.89559800     6.64724299     1.65907202     0.52444405    -0.14700185    -1.60998066
O       1.94577797     2.46154900     1.68757498    -3.14860264     0.64930380    -1.50010658
