# total energy = -4987.94108237 eV

CRYSTAL
PRIMVEC
        3.13500378     0.00000000     0.00000000
        1.44119696     4.69590150     0.00000000
       -0.00000960    -0.00006438     4.96955008
PRIMCOORD
6 1
Ti      2.28809563     2.34791861     2.48477504     0.00000000     0.00000000     0.00000000
Ti      0.00000000     0.00000000     0.00000000     0.00000000     0.00000000     0.00000000
O       1.84836809     0.91514959     0.96849210    -0.38055452     0.28460323     0.04734508
O       2.72782323     3.78068762     4.00105792     0.38055452    -0.28460323    -0.04734508
O       0.43972361     1.43274296     3.45326824     0.38029664    -0.28702032     0.04879853
O       1.00146396     3.26309402     1.51628184    -0.38029664     0.28702032    -0.04879853
