# total energy = -19961.69208858 eV

CRYSTAL
PRIMVEC
        7.60600008     0.00000000     0.00000000
        0.00000000     7.60600008     0.00000000
       -1.89786986    -1.89786986     4.85670466
PRIMCOORD
24 1
Ti      3.83592302     6.63740701     1.14559598    -0.87025369    -0.17288747     0.56788054
Ti      3.76949503     2.83893202     1.18587002     0.88550831     0.36976874     0.43275128
Ti     -0.02321702     6.71754302     1.23966999     1.32715175    -1.63189264    -0.70889840
Ti     -0.04146501     2.78033601     1.20364699    -0.73727645     1.38162291     1.47031314
Ti      5.68927320     2.79826321     3.72188781     0.35054999     1.73452854    -0.37845393
Ti      5.72274821    -0.90391475     3.61194081     0.01867650    -1.47241733     0.29005217
Ti      1.89710621     2.79881620     3.61032280    -0.10892354     0.20383482    -0.18269623
Ti      1.93974620    -0.97056775     3.63935081    -0.09035014     0.20534894    -0.80679190
O       3.81267700     4.73157297     0.76672100    -0.04575357     0.50743722    -0.05198644
O       3.77937699     0.95696297     0.75824300     0.19021851     0.05775137     0.03058328
O      -0.08811500     4.74089501     0.84408402     0.33302175    -0.23484028    -0.19447112
O      -0.09602498     0.89802501     0.83593199     0.15968845     1.78356258    -0.80516259
O       5.83980920     4.72172821     4.13695079    -0.18964644     0.75798592    -0.48323490
O       5.65942723     0.95677422     4.12342983     0.08283609    -1.26322562    -0.52407175
O       1.78787524     4.71340124     4.06496580     0.32602937     0.66058812    -0.02759463
O       2.00276423     0.96635725     3.94769583    -0.16665974    -0.49924260     0.83434077
O       3.88970224     2.85029022     3.15275884    -1.55779162    -0.00953417     0.62288083
O       3.80139325    -1.03521776     3.21430982     0.62000813    -0.11522866    -0.09721448
O      -0.00273177     2.73423123     3.17118082     0.11341346    -0.18773534     0.46460803
O      -0.04180876    -0.85536576     3.23434183     0.32179296    -0.17111932     0.50486123
O       5.76043198     6.68099100     1.58223098    -2.16015709     0.03018528     0.64267884
O       5.66263299     2.91908898     1.67218900     0.83382295    -0.44346121    -0.68308863
O       1.90463100     6.86406998     1.69787801     0.43500305    -0.87255946    -0.31141007
O       1.91117301     3.01703800     1.67080599    -0.07090925    -0.61847087    -0.60587503
