# total energy = -19518.19674181 eV

CRYSTAL
PRIMVEC
        5.93400000     0.00000000     0.00000000
        0.00000000     9.29699974     0.00000000
        0.00000000     0.00000000     4.64899994
PRIMCOORD
23 1
Ti      4.48879899     7.00432200     2.33194200     0.53011050    -0.03968499     0.04460609
Ti      4.42567799     2.37039102     2.27761799     0.59129018    -0.27138621     0.23664802
Ti      1.44453499     6.99993200     2.24756501    -0.30394590     0.07168958     0.42511638
Ti      1.47046801     2.30845601     2.33133001    -0.26071459     0.10247547     0.15777092
Ti      2.96140199     4.57312101     0.06145902    -0.07503099    -0.22954406     0.48445001
Ti      2.97790899     0.05499998     0.05561298     0.30254722    -0.33488271    -0.32390307
Ti      5.92095298     4.64395699     0.00906602    -0.09018096     0.32354954    -0.34574151
Ti      0.04052000     0.06118400     4.52931402    -0.24925389    -0.33100446    -0.14162130
O       4.49951801     5.54215002     0.99186502    -0.82623022    -0.07438487    -0.53185860
O       4.49662500     0.96641800     0.92676600    -0.56864904    -0.61109051    -0.52195445
O       1.52521700     5.57849799     0.94083402     0.22484665    -0.31377549    -0.50633962
O       1.44795400     0.91188501     0.86543902     0.35762773     0.15873071     0.59586495
O       4.50073099     8.36336899     3.81898400    -0.68996659    -0.40116629    -0.56457693
O       4.41858998     3.71101401     3.68648299    -0.04213834     0.71753371     0.77518686
O       1.48929999     8.25360800     3.83387399     0.13910625     0.48384606    -0.40709963
O       1.46452201     3.70750101     3.76969601     0.56972350     0.41236602    -0.05494912
O       2.82334298     1.41622702     3.31633398     1.01355444    -0.19526353    -0.58923433
O       0.02336201     5.99063398     3.23896599    -0.06145993     0.05320771     0.20242226
O       5.89946600     1.33796102     3.12367002     0.33268519    -0.01469643     0.73257133
O       2.97809600     7.84249400     1.37266298     0.17472607    -0.46696573     1.42115595
O       2.99186900     3.31557398     1.45092602    -0.63981592    -0.68749936    -0.03680073
O       5.92168901     7.76645499     1.49483799    -0.05261096     1.55439776    -0.98835710
O       0.02897701     3.23242399     1.41292898    -0.37622118     0.09354808    -0.06335612
