# total energy = -19517.95230945 eV

CRYSTAL
PRIMVEC
        5.93400000     0.00000000     0.00000000
        0.00000000     9.29699974     0.00000000
        0.00000000     0.00000000     4.64899994
PRIMCOORD
23 1
Ti      4.46611100     6.95613200     2.32356597     0.86533080     0.10492984    -0.05108270
Ti      4.41545402     2.33802998     2.28243901     0.21765450     0.02165538     0.43731858
Ti      1.46082502     7.02190000     2.32242703    -0.97747336    -0.31061226    -0.46108510
Ti      1.45798498     2.36653501     2.30722398    -0.12804381    -0.18478422     0.21157359
Ti      2.91416102     4.59206201     0.05126299     0.74436575    -0.01186667    -0.20768891
Ti      2.96546401     0.00084298     0.03151102     0.60098119    -0.04783822    -0.11185434
Ti      5.93291201     4.66753300     0.04756901    -0.92533317     0.36456431    -0.63923073
Ti      0.03257901     9.28426102     4.55056297    -0.92087205     0.33985497     0.39152516
O       4.47371998     5.55489298     1.02804100    -0.47130961    -0.23808527    -0.70372045
O       4.35227798     0.98122300     0.87796501     0.58950224    -0.22250386    -0.29543632
O       1.57124600     5.61112801     0.94578299     0.19815834    -0.01504584    -0.45445576
O       1.51771798     0.84183401     0.86269597    -0.47219921     0.67920986     0.39432844
O       4.50570901     8.30011902     3.78057002    -0.40901459     0.31475045     0.03302249
O       4.53038000     3.67727001     3.81000201    -0.73208050     0.60385928    -0.66439310
O       1.37531199     8.28421302     3.79090898     1.08404511     0.15406262    -0.35774985
O       1.49007201     3.71572300     3.73138199     0.62873137     0.61757895     0.02232875
O       2.92549499     1.44215798     3.15624400     0.55027182    -0.31678368     0.17024926
O       0.07661201     5.98381400     3.27067498     0.07671352     0.47174258    -0.30870399
O       5.92539701     1.42790803     3.16066702     0.05728960    -0.42163408     0.19969689
O       3.04188800     7.92180402     1.43714402    -0.52639783    -0.66805435     0.69338873
O       2.96440502     3.38715499     1.35909900     0.02103703    -1.75011046     1.55603941
O       5.91117601     7.76729998     1.46512099     0.39684838     1.36733297    -0.66460007
O       0.10148403     3.29716602     1.35059401    -0.46820500    -0.85222203     0.81053003
