# total energy = -19955.10636160 eV

CRYSTAL
PRIMVEC
        6.00646056     0.00000000     0.00000000
        0.00002793     5.23038326     0.00000000
        0.00000000     0.00000000     9.87166568
PRIMCOORD
24 1
Ti      2.17706960     3.09952017     3.66231769     0.12465150    -0.00311618    -0.18291503
Ti      3.82941895     2.13086287     6.20934839    -0.12465150     0.00311618     0.18291503
Ti      5.18019581     2.13086456     1.27347591     0.12586275     0.00363477     0.18364497
Ti      0.82629274     3.09951865     8.59819028    -0.12586275    -0.00363477    -0.18364497
Ti      2.17705586     0.48432865     1.27351549     0.12450237    -0.01599278     0.18343259
Ti      3.82943269     4.74605455     8.59815069    -0.12450237     0.01599278    -0.18343259
Ti      0.82627899     0.48432674     6.20930881    -0.12502662    -0.01592953     0.18306981
Ti      5.18020955     4.74605641     3.66235727     0.12502662     0.01592953    -0.18306981
O       1.90109254     1.84170678     5.03743559     0.80382073     0.45861324    -0.02448077
O       4.10539600     3.38867625     4.83423049    -0.80382073    -0.45861324     0.02448077
O       1.10219251     1.84172792     0.10163434    -0.80293242     0.45790824    -0.02468826
O       4.90429609     3.38865517     9.77003145     0.80293242    -0.45790824     0.02468826
O       4.10538226     0.77348457     0.10160230    -0.80372997    -0.45877728    -0.02441032
O       1.90110628     4.45689847     9.77006349     0.80372997     0.45877728     0.02441032
O       4.90428229     0.77346349     5.03746763     0.80372843    -0.45865258    -0.02451419
O       1.10220614     4.45691961     4.83419844    -0.80372843     0.45865258     0.02451419
O       0.21824549     3.18141562     2.66658328    -0.23217276    -0.08846578     0.22279157
O       5.78824306     2.04896742     7.20508280     0.23217276     0.08846578    -0.22279157
O       3.22148178     2.04891881     2.26928116    -0.23171947     0.08818501    -0.22208503
O       2.78500677     3.18146423     7.60238474     0.23171947    -0.08818501     0.22208503
O       0.21823169     0.56622393     2.26924962    -0.23150324    -0.08839739    -0.22207629
O       5.78825685     4.66415911     7.60241628     0.23150324     0.08839739     0.22207629
O       2.78499297     0.56627254     7.20511429     0.23231674    -0.08879899    -0.22279286
O       3.22149557     4.66411050     2.66655173    -0.23231674     0.08879899     0.22279286
