# total energy = -78964.69503230 eV

CRYSTAL
PRIMVEC
       10.35150501     0.00002646     0.00000000
        0.00002858    11.01713167     0.00000000
        0.00000000     0.00000000     9.26345890
PRIMCOORD
94 1
Ti      7.17142643     8.69575368     3.26966449    -0.03565222    -0.05302157     0.09383682
Ti      7.03076670     3.30580714     3.42304640     0.17188422    -0.01157357     0.07852975
Ti      1.82366193     8.75929805     3.47633378    -0.03176908     0.10610201    -0.06834843
Ti      1.83999969     3.40450848     3.50646703    -0.02846598    -0.00059470     0.00825839
Ti      8.35441322     7.68972355     5.76245477     0.05648561     0.02956513    -0.06968566
Ti      8.52260754     2.22777454     5.82423439    -0.01959644    -0.14525504    -0.03368969
Ti      3.35027910     7.68044199     5.80717862    -0.06797999    -0.10184683     0.05516304
Ti      3.23161084     2.18707626     5.78273228    -0.04292253     0.14391884     0.08360459
Ti      9.76083978     7.68993416     1.13083520    -0.05826636     0.02878737    -0.06964067
Ti      9.59241910     2.22791773     1.19242489     0.02097764    -0.14555946    -0.03333874
Ti      4.41346413     7.68036670     1.17543369     0.06998083    -0.10300692     0.05592409
Ti      4.53212841     2.18705728     1.15104622     0.04102222     0.14501104     0.08436744
Ti      5.94017156     8.75923914     8.10791125     0.02941909     0.10565695    -0.06638437
Ti      5.92362079     3.40464216     8.13832902     0.02882568     0.00052785     0.00742998
Ti      0.59237504     8.69576751     7.90139931     0.03227944    -0.05384355     0.09348689
Ti      0.73297272     3.30582648     8.05469501    -0.17087352    -0.01237061     0.07927100
Ti      7.04398450     6.05061305     1.17842503    -0.03118235    -0.01217495    -0.04120220
Ti      7.03925186     0.53762773     1.19310196    -0.01106809    -0.01186436     0.08869564
Ti      1.90210926     6.02441489     1.21563976    -0.10832036     0.12508679     0.01195023
Ti      1.89447888     0.86566248     1.31768925     0.08206116    -0.12331350     0.15847232
Ti      8.47335591    10.47868246     8.08763552    -0.02223877     0.11837518    -0.05867157
Ti      8.53354903     4.96281651     8.05235606    -0.17341043    -0.03383419     0.08215166
Ti      3.50372037    10.45025865     7.92905089    -0.18892242    -0.03443120     0.03199868
Ti      3.28259446     4.95401213     8.06859392    -0.02515851    -0.04017196     0.06293112
Ti      5.86144339     6.02439744     5.84733205     0.10795886     0.12472889     0.01148666
Ti      5.86895051     0.86580468     5.94945696    -0.08115304    -0.12299057     0.15748835
Ti      0.71994482     6.05056437     5.81020172     0.03028941    -0.01206413    -0.04179073
Ti      0.72434629     0.53758984     5.82488854     0.01335406    -0.01011370     0.08854831
Ti      9.64193446    10.47868607     3.45592423     0.02183304     0.11835898    -0.05864097
Ti      9.58163372     4.96267345     3.42076534     0.17308904    -0.03305437     0.08094093
Ti      4.26025279    10.45028061     3.29713015     0.19007504    -0.03405582     0.03147597
Ti      4.48099351     4.95400691     3.43684513     0.02496054    -0.03992153     0.06221583
O       6.76049047     7.49378877     4.73991336    -0.05235462    -0.06465710    -0.05547466
O       6.84412503     1.87290820     4.67311569     0.03549178     0.16291621     0.07003559
O       1.64224813     7.43303599     4.75358209    -0.13592990     0.01919406     0.00142182
O       1.66187573     1.89979005     4.72270694     0.03783431     0.02291548    -0.11323502
O       8.61102345     9.13937112     4.56306837    -0.01430768    -0.07626795    -0.01523919
O       8.70708663     3.58103100     4.52019581     0.03429184     0.00938402     0.05832498
O       3.51413877     9.13253442     4.54379230    -0.05415157    -0.16318155     0.10151542
O       3.57303400     3.55304129     4.53442825    -0.09905436    -0.03584428    -0.01442955
O       6.12155044     7.43303335     0.12182442     0.13475517     0.02012429     0.00074691
O       6.10175090     1.89979518     0.09104468    -0.03842412     0.02279901    -0.11381738
O       1.00314488     7.49378266     0.10815881     0.05234562    -0.06465118    -0.05536307
O       0.91938706     1.87293995     0.04137056    -0.03548021     0.16261308     0.07032201
O       9.50401167     9.13933609     9.19488303     0.01509264    -0.07543182    -0.01622572
O       9.40805805     3.58109258     9.15191606    -0.03396274     0.00949123     0.05780253
O       4.24953043     9.13242540     9.17555838     0.05336738    -0.16193919     0.10038542
O       4.19061356     3.55300963     9.16622807     0.09802952    -0.03545964    -0.01444755
O       8.71859717     6.34446061     0.06578053     0.09271967     0.05029542     0.02691355
O       8.68103106     0.83650441     0.09619820     0.04328994    -0.03048378     0.03196448
O       3.55679994     6.35296123     0.10491918    -0.00602821    -0.04559570    -0.06534641
O       3.36551334     0.69558694     0.08972339    -0.12598796    -0.06371916    -0.07749334
O       6.83414489    10.17381951     9.17927745     0.03872983     0.00225692     0.08258901
O       6.82521175     4.67348708     9.19960563    -0.05490619    -0.03660944    -0.05251094
O       1.64843902     4.67909094     9.16558949     0.03047350     0.00035558     0.00787324
O       9.39658220     6.34443362     4.69742555    -0.09185269     0.05063970     0.02818599
O       9.43400909     0.83646362     4.72792156    -0.04293615    -0.03026087     0.03261368
O       4.20691261     6.35292758     4.73671784     0.00482828    -0.04517353    -0.06556341
O       4.39797242     0.69568743     4.72140971     0.12656440    -0.06420330    -0.07692692
O       6.11529991     4.67913671     4.53385124    -0.03109133     0.00037590     0.00808047
O       0.92949065    10.17381789     4.54756478    -0.03874731     0.00215921     0.08272630
O       0.93854889     4.67343947     4.56781305     0.05423898    -0.03577871    -0.05196021
O       5.40573554     8.98160397     2.66304106    -0.04583816     0.10625242     0.06884337
O       5.36305563     3.35208527     2.46186047    -0.05734488     0.01833969    -0.05031291
O       0.15553846     8.83509599     2.54328642     0.01611131    -0.01549887    -0.13232547
O       0.20955465     3.34590851     2.48726388    -0.00394742     0.04316961     0.03304640
O      10.11673233     7.60495954     6.74774743    -0.00685816    -0.02161193     0.00997948
O      10.17184378     2.15748730     6.76627134     0.04670179    -0.07243520    -0.05712376
O       4.96128232     7.63879051     6.81581823     0.02102983     0.05478971    -0.08096587
O       4.96721100     2.16601034     6.82122034    -0.01004762     0.10664400    -0.14425360
O       7.99854004     7.60497656     2.11598989     0.00732328    -0.02160962     0.01024071
O       7.94323329     2.15739458     2.13460649    -0.04629890    -0.07218658    -0.05760302
O       2.80239158     7.63873793     2.18408227    -0.02133425     0.05463853    -0.08147803
O       2.79626811     2.16579873     2.18944852     0.01044640     0.10750249    -0.14460378
O       7.60817734     8.83505358     7.17493016    -0.01603212    -0.01489004    -0.13158217
O       7.55406370     3.34598358     7.11904900     0.00425492     0.04290196     0.03277926
O       2.35779413     8.98158611     7.29478980     0.04801974     0.10734360     0.06891639
O       2.40060592     3.35217983     7.09350079     0.05632775     0.01841373    -0.04963954
O       5.38713303     6.15509763     2.16456827    -0.03056194     0.07224083    -0.00796605
O       5.32843574     0.57887201     2.11523426     0.04979509     0.04660640    -0.08145258
O       0.22162683     6.09637038     2.12242361     0.00372759    -0.03750135    -0.02493200
O       0.16976134     0.56966574     2.12035113    -0.07561206     0.06518109    -0.00877132
O      10.25837638    10.41762324     7.21641704    -0.10094746     0.05629175    -0.07105478
O      10.16758817     4.89202129     7.11254055    -0.04249289     0.04998381     0.00576647
O       5.06175128    10.38477360     7.01353714     0.26137639    -0.11630364     0.08169992
O       4.97840602     4.89706741     7.13688169     0.01322422    -0.06564132    -0.01185202
O       7.54208291     6.09642475     6.75418611    -0.00406389    -0.03736637    -0.02506209
O       7.59359525     0.56969953     6.75212437     0.07714521     0.06493298    -0.00820619
O       2.37662073     6.15511159     6.79633415     0.02961629     0.07203565    -0.00795371
O       2.43506240     0.57887227     6.74702790    -0.04950044     0.04626985    -0.08112245
O       7.85662434    10.41757541     2.58469708     0.10207309     0.05681754    -0.07149264
O       7.94768438     4.89196033     2.48072902     0.04271915     0.04976835     0.00653883
O       2.70185817    10.38473486     2.38175338    -0.25877340    -0.11620234     0.08337268
O       2.78534221     4.89705511     2.50504533    -0.01459230    -0.06619539    -0.01173272
