# total energy = -39037.66035370 eV

CRYSTAL
PRIMVEC
        7.60600008     0.00000000     0.00000000
        0.00000000     7.60600008     0.00000000
       -3.79573973    -3.79573973     9.71340985
PRIMCOORD
46 1
Ti      1.91768343     4.79724144     6.16708761     0.14172209     0.02214261     0.22219816
Ti      3.76343002     6.82513899     1.35469699    -0.13437156    -1.18200187     0.49639484
Ti      2.04684945     0.85152742     5.98823760    -1.13489101    -0.74566005     1.00214131
Ti      3.89510498     2.77275300     1.18172598    -1.27378617    -0.73151846     0.49654423
Ti     -1.87153954     4.81960246     6.08707765    -0.33319710     1.05312399     0.53067872
Ti     -0.04424102     6.65576300     1.18207101     0.44772976     1.37301716     0.60970546
Ti     -1.89957456     1.00308945     5.98146260     0.45132005    -1.43630078    -0.15696051
Ti     -0.10131098     2.91278600     1.10932797     1.43537569    -1.08567597     1.05852716
Ti      3.82890343     0.98132645     8.50473964    -0.80649263     0.30740764    -0.69555385
Ti      5.70280400     2.90051100     3.75496001     0.33042545    -0.68099086    -1.49835849
Ti      3.76763846    -2.76263154     8.52531665     0.35047851    -0.80710301     0.17122911
Ti      5.70572098    -0.95425697     3.62580599     0.20432410     0.58283562     1.49790263
Ti     -0.00444557     0.88267046     8.26905764     0.64761099     0.46094935    -0.40784190
Ti      1.87557901     2.79657598     3.43414201    -0.33426308    -0.51553980    -0.12033487
Ti     -0.02928356    -2.97721355     8.54352564    -0.04615466     0.31716729     0.91192846
Ti      1.83452899    -1.03644799     3.72942800    -0.08784203     0.03901650     0.48507736
O       1.88371845    -1.03887554     5.75413260    -0.19667018     0.33801817    -1.22388850
O       3.69512699     0.92022199     0.93639798     0.19692601     1.15207704    -1.26748902
O      -1.99031755     2.88358643     5.63624662    -0.04631973     0.68598292     0.43213215
O       0.02829601     4.81047701     0.85138201    -0.25197952    -0.56542925    -1.08246466
O      -1.89078154    -0.98876954     5.61173164     0.21815278    -0.00994966     0.73184653
O       0.08600501     0.92785801     0.76562502    -0.22347857     0.22202744     0.32292733
O       3.59129443     2.91850646     8.87820363     0.53607289    -1.47878981     0.23493181
O       5.83641300     4.80782398     3.98213601    -0.38823569    -1.45976082     0.59875590
O       3.67593744    -0.91868155     8.88256961     0.58113741     1.35672562     0.35875258
O       5.81153002     0.97961499     4.10164302    -0.44815579     0.30125550    -0.41151550
O       0.09819847     2.70719445     9.08576965    -0.22460317    -0.25274648    -0.55015226
O       1.93629099     4.51363699     4.17428302    -0.12820554     0.69296372    -0.12515518
O      -0.04895657    -0.83146653     9.00420465     0.05231194     0.35405981    -0.71074034
O       1.81675498     0.95279301     4.16039302     0.43237718     0.90524256    -1.69152194
O       1.89430046     0.82181544     7.95894062     0.38526761     0.88063376     0.57535217
O       3.87380401     2.70533799     3.13698301    -0.30382506     0.78523551     0.57427487
O       1.89073243    -2.67797053     8.18783761    -0.80438818    -0.76220639    -0.33068770
O       3.83424103    -0.84259798     3.38192100    -1.44547422    -0.42995031    -0.56807903
O      -1.93832155     1.02760248     7.99013361    -0.06316483     0.15997950     0.43587517
O      -0.05373102     2.74320300     3.13530700    -0.02860328     0.58142126     0.04336013
O      -1.88179256    -2.70996258     8.18578864     0.30186074    -0.68304595    -0.46460700
O      -0.02147999    -0.84406602     3.31016600     1.53951647    -0.52296592    -0.58268367
O       3.83986047     4.92868245     6.58684365    -0.24000383    -1.02386405    -0.78303876
O       5.69869202     6.64252400     1.76396299    -0.12271366    -0.22892185    -2.06107522
O       3.81354744     0.68569746     6.35789363     0.85995874     1.12847508     0.66793660
O       5.69505203     2.72168502     1.43518702     0.05638971     0.75655124     0.34085076
O       0.00220847     4.74006447     6.59133361     0.11486356    -0.73729522    -0.41031042
O       1.91792701     6.57279299     1.69628302    -0.21879685    -0.36738404     0.11637254
O       0.02029543     0.84780747     6.26715164    -0.58146702     0.71578793     1.50931962
O       1.86564001     2.83134398     1.48866101     0.58326165     0.53500434     0.71744321
