# total energy = -19071.58169935 eV

CRYSTAL
PRIMVEC
        5.17600016     0.00000000     0.00000000
        0.00000000     5.50899976     0.00000000
        0.00000000     0.00000000     9.26300011
PRIMCOORD
22 1
Ti      1.37352803     3.21805000     3.57497502     0.81634175    -1.80894247    -0.99028029
Ti      4.42454402     3.15788799     5.73593600    -0.51170268    -0.56657904    -0.75784605
Ti      3.75624400     2.14622402     1.67549598     1.37344217     0.73063246     0.96051462
Ti      1.53853899     2.58472299     8.40154601    -0.23847762     0.58264536     1.54388092
Ti      1.33821597     0.42495500     1.19968801     0.27784148    -0.96828681     0.82325237
Ti      3.34152901     5.49951500     8.26308101     0.15160130    -2.09151272    -0.41910051
Ti      1.76453900     0.21658902     5.60185100    -0.46593420     0.99649979    -1.78041915
Ti      3.90816402     4.99004600     3.54082701    -0.81708686    -2.22958358    -0.26809931
O       3.25191702     3.30085401     4.26013801    -0.75541276    -0.26104497     0.49539520
O       0.29901901     1.79291798     0.46985500    -0.38043753     0.95995129    -2.40581889
O       0.35937501     2.88989602     7.14424599    -0.49326890     0.30184351     0.97854037
O       2.82002700     1.40457300     0.14027600     0.73266826     0.69651390     0.27917743
O       2.36599303     4.38572701     0.09084698    -0.44962903    -1.03366844    -0.58252889
O       3.28537097     0.66018402     4.69364901     0.10444853     0.86793661     1.37785007
O       0.45970300     4.27713100     4.86020099    -0.27300935     3.07452193     1.46769730
O       5.01174402     3.41304202     2.58017598    -1.53132544    -0.16493401    -1.82421560
O       0.88062598     1.80974503     4.77161502    -0.41272109    -1.32178303     1.11953355
O       1.98700998     1.79357998     2.32487601     1.05101003     1.45522616     0.66012764
O       3.20984600     4.45291898     6.63248598     0.25923594    -1.11733860     0.50205359
O       4.53073100     0.58065302     2.27893601     1.15582828     0.44445006    -1.46127288
O       2.11522101     0.98581203     7.21963401    -0.80146252     1.71730112     0.35460334
O       1.98299401     4.86033302     2.70558401     1.20805101    -0.26384876    -0.07304455
