# total energy = -19960.22052267 eV

CRYSTAL
PRIMVEC
        7.60600008     0.00000000     0.00000000
        0.00000000     7.60600008     0.00000000
       -1.89786986    -1.89786986     4.85670466
PRIMCOORD
24 1
Ti      3.86332101     6.45747801     1.22159198     0.65362943     0.93925210     0.45869912
Ti      3.85642498     2.71892102     1.23366399     0.62035883    -0.64679981     0.54990775
Ti      0.03264902     6.75952001     1.20211598    -0.73511286     0.52172099    -1.70911806
Ti     -0.02098198     2.97989399     1.28317498    -0.96415916    -1.38654734    -1.42676301
Ti      5.68602823     2.89659720     3.67742279    -3.16705417     0.51213463    -1.14375567
Ti      5.78749924    -0.79506876     3.66222281    -2.58859662    -0.22698427    -0.77776645
Ti      1.71454821     2.76687924     3.62826884     2.94056149    -0.04638246     1.11792070
Ti      1.83641222    -1.00648878     3.57414882     2.87337880     0.06826179     1.50018757
O       4.00546701     4.58785600     0.88713502    -0.67993311     0.62936052    -0.63542293
O       3.91771800     0.73800298     0.66948198    -0.48701237     1.88682327    -0.14061446
O      -0.02058002     4.77108600     0.69332999     0.54260915     0.13183645     2.46489617
O      -0.02790701     1.06197100     0.68535402     0.88172313     0.38100086     1.20751519
O       5.58638421     4.87598624     4.11596282     0.90218938    -0.34963931    -0.54346790
O       5.42277922     1.06961624     3.97494180     1.30710742    -1.16576869     1.16566661
O       1.92127522     4.60892323     4.06780981    -0.78937730     0.02481784    -0.88402761
O       1.88258320     0.88684223     4.11020183    -0.41118434     0.03486494    -0.47538301
O       3.82705924     2.90039225     3.15355181     0.11372765     0.01005405     0.61947283
O       3.81809122    -0.81527180     3.20968783    -0.31365645    -0.86974359    -0.59592306
O      -0.10766979     2.82729922     3.23813481     1.59852408     0.37317262    -0.08488577
O       0.02248024    -0.67607876     3.14641882    -0.02429076    -0.52917025     0.35234411
O       5.73928802     6.67103601     1.55525898     1.12896925    -0.25768865     0.76933683
O       5.72314499     2.63584199     1.69479503     1.02081549     0.69112333    -0.91509606
O       1.99952302     6.71535403     1.51414402    -2.00755795    -0.77759084     0.62953124
O       1.97443499     2.75989802     1.78553898    -2.41565876     0.05189182    -1.50325387
