# total energy = -19960.17892366 eV

CRYSTAL
PRIMVEC
        5.93400000     0.00000000     0.00000000
        0.00000000     9.29699974     0.00000000
        0.00000000     0.00000000     4.64899994
PRIMCOORD
24 1
Ti      4.47339200     7.02543702     2.32512001     1.10407684    -0.19176889     0.74282900
Ti      4.42140600     2.27913202     2.26611997    -0.35808101     0.77115229     0.70446427
Ti      1.52441498     6.91627702     2.32058099    -1.26294820    -0.37843053     0.46897762
Ti      1.45546398     2.28472500     2.26986501     0.48753585     0.80245856     1.14972783
Ti      2.97921997     4.63520800     0.03342998    -0.25253976     1.26021126    -0.44767319
Ti      2.91537199     0.05716702     0.13601797     1.23614212    -2.20716741    -1.74923166
Ti      5.88973702     4.59274999     4.63978401     0.43556406     1.66007862    -0.79578861
Ti      0.02585999     0.05647898     4.63523298    -0.33652668    -2.92322248    -0.79775550
O       4.51740600     5.49689700     0.91091498    -0.69669697     0.71963893     0.56491040
O       4.45677001     0.84545300     0.94643298    -0.30862737     0.31821476     0.14718671
O       1.47143698     5.51152298     0.95286100     0.63992493     0.06800648     0.33315570
O       1.50753798     0.86394002     0.94240700    -0.88884303     1.51488117     0.65069220
O       4.41870698     8.37659202     3.62770500     0.11729634     1.26785489     1.33516280
O       4.45914501     3.80607901     3.66996398    -0.15065590    -0.95495435    -0.70603445
O       1.36176701     8.43166402     3.69212698     1.00297152     0.77675884     1.08670826
O       1.52248602     3.81872603     3.80698797    -0.05455857    -1.48502988    -1.97063560
O       3.06723803     6.07199001     3.23047799    -0.27839864     0.20885336    -0.16604216
O       2.96867702     1.40811701     3.22484601    -0.52102191     0.82332693    -0.52494027
O       0.01296098     6.21732801     3.37058899    -0.17983202    -0.56212486    -1.11155901
O       0.05294498     1.40341299     3.29179699    -0.01789643     1.67337123    -1.44768177
O       2.85738601     8.01645801     1.47531998     1.19764781    -0.57621091    -0.61061949
O       3.01173098     3.22682000     1.35603501    -0.43538460    -1.17397077     0.96761935
O       0.16998898     7.85121802     1.38392398    -1.51138062     0.35775037    -0.31727605
O       5.82171700     3.16301800     1.19295603     1.03223222    -1.76967785     2.49380387
