# total energy = -4988.12337982 eV

CRYSTAL
PRIMVEC
        3.53803286     0.00000000     0.00000000
        0.17678358     3.53361346     0.00000000
       -1.85743963    -1.76683661     4.51672943
PRIMCOORD
6 1
Ti      0.13244476     2.65034427     1.12918223     0.00269786    -0.00281150     0.00081530
Ti      1.72493160    -0.88356785     3.38754695    -0.00269786     0.00281150    -0.00081530
O       0.04423311     0.88339758     0.73573829     0.00034041     0.00192267     1.50201691
O       1.81314309     0.88337874     3.78099094    -0.00034041    -0.00192267    -1.50201691
O      -0.04421567    -0.88338099     2.99410301     0.00195687     0.00036355     1.50458236
O       1.90159187     2.65015726     1.52262627    -0.00195687    -0.00036355    -1.50458236
