# total energy = -19517.96280707 eV

CRYSTAL
PRIMVEC
        5.93400000     0.00000000     0.00000000
        0.00000000     9.29699974     0.00000000
        0.00000000     0.00000000     4.64899994
PRIMCOORD
23 1
Ti      4.49614900     7.00155398     2.26108401     2.13859298     0.55598635    -0.40704178
Ti      4.42245398     2.27005499     2.40867101     0.82168939     0.18347502    -0.31294682
Ti      1.51484597     7.04481401     2.19913698    -1.84115326     0.84780847     0.06197055
Ti      1.43415999     2.30468800     2.28782201    -0.56699968    -0.10249167    -0.25096136
Ti      2.92469302     4.40730199     0.16786201     0.77724940     1.04963757    -0.00591920
Ti      2.95698702     0.01265898     4.54533698    -0.24624853    -1.14051479     0.25325478
Ti      0.01607101     4.64987801     4.63725798    -0.54961516     0.54179489     0.16476946
Ti      5.89652801     0.15484499     4.62850200     0.24034913    -1.52572481     0.78326347
O       4.45887000     5.58702203     0.94899198    -0.45727832    -0.13341408    -0.50984866
O       4.46665700     0.96534398     1.00135999    -0.22917639    -0.42562855    -0.80943705
O       1.54360797     5.49635401     0.96846798    -0.31206982     0.25400040    -0.63263585
O       1.53879400     0.89729602     0.91424398     0.02496748     0.59330181     0.25120459
O       4.55412698     8.46254601     3.76308902    -0.86582934    -0.71485925    -0.52371720
O       4.35135102     3.63650998     3.83012599     0.68280786     0.91352538    -0.09227050
O       1.39961001     8.34611998     3.56330799     1.26983233     1.08333935     1.86929194
O       1.50220102     3.72200698     3.77591802    -0.09236717    -0.04196428    -0.27105197
O       2.96346700     1.32820198     3.23486402    -0.59963676     0.51388864    -0.16080842
O       0.08106202     6.11954002     3.13404898    -0.64630127    -1.26793228     1.22644289
O       0.03056602     1.47279300     3.31667398     0.10308096     0.44676251    -0.53924229
O       3.03469098     7.92318401     1.42621201     0.11590229    -0.49785163    -0.12619185
O       2.97196898     3.26564700     1.51879200    -0.21373589    -0.80614553     0.61921340
O       0.05238500     7.91387001     1.39245500    -0.47834261     0.03451887    -0.48232808
O       5.83047499     3.31009302     1.47437302     0.92428210    -0.36151215    -0.10501006
