# total energy = -19957.95034052 eV

CRYSTAL
PRIMVEC
        5.70626730     0.00000000     0.00000000
        0.00002840     5.49479442     0.00000000
        0.00000000     0.00000000     9.75100927
PRIMCOORD
24 1
Ti      2.06826430     3.25621004     3.61755498     0.01950414    -0.16255523     0.01284009
Ti      3.63803140     2.23858427     6.13345463    -0.01950414     0.16255523    -0.01284009
Ti      4.92129851     2.23858617     1.25791087     0.02096144     0.16265422    -0.01244312
Ti      0.78499725     3.25620842     8.49309890    -0.02096144    -0.16265422     0.01244312
Ti      2.06825016     0.50881294     1.25794999     0.01950414    -0.16255523    -0.01284009
Ti      3.63804560     4.98598154     8.49305978    -0.01950414     0.16255523     0.01284009
Ti      0.78498305     0.50881093     6.13341556    -0.02096144    -0.16265422    -0.01244312
Ti      4.92131265     4.98598360     3.61759410     0.02096144     0.16265422     0.01244312
O       1.80607965     1.93481046     4.97586552     0.72395093     0.51680607     0.01027105
O       3.90021611     3.55998385     4.77514409    -0.72395093    -0.51680607    -0.01027105
O       1.04710744     1.93483268     0.10039211    -0.72369022     0.51680813     0.00986378
O       4.65918837     3.55996169     9.65061727     0.72369022    -0.51680813    -0.00986378
O       3.90020191     0.81258659     0.10036049    -0.72395093    -0.51680607     0.01027105
O       1.80609385     4.68220772     9.65064889     0.72395093     0.51680607    -0.01027105
O       4.65917417     0.81256442     4.97589719     0.72369022    -0.51680813     0.00986378
O       1.04712148     4.68222995     4.77511247    -0.72369022     0.51680813    -0.00986378
O       0.20733926     3.34224547     2.63399094     0.07353512    -0.13643538     0.19030336
O       5.49895650     2.15254890     7.11701867    -0.07353512     0.13643538    -0.19030336
O       3.06047796     2.15249775     2.24154487     0.07353666     0.13656162    -0.19043937
O       2.64581774     3.34229661     7.50946462    -0.07353666    -0.13656162     0.19043937
O       0.20732506     0.59484820     2.24151370     0.07353512    -0.13643538    -0.19030336
O       5.49897064     4.89994616     7.50949574    -0.07353512     0.13643538     0.19030336
O       2.64580359     0.59489934     7.11704978    -0.07353666    -0.13656162    -0.19043937
O       3.06049216     4.89989497     2.63395982     0.07353666     0.13656162     0.19043937
