# total energy = -4984.88658683 eV

CRYSTAL
PRIMVEC
        4.00519725     0.00000000     0.00000000
        0.00000000     3.76532590     0.00000000
        0.00000000    -0.00007416     5.35513011
PRIMCOORD
6 1
Ti      2.00259845     1.88262599     2.67756517     0.00000000     0.00000000     0.00000000
Ti      0.00000000     0.00000000     0.00000000     0.00000000     0.00000000     0.00000000
O       2.00259845     0.73379215     1.04363604    -0.00000000     0.37411776     1.29928072
O       2.00259845     3.03145982     4.31149435    -0.00000000    -0.37411776    -1.29928072
O       0.00000000     1.14880422     3.72120225     0.00000000    -0.37288980     1.29861352
O       0.00000000     2.61644775     1.63392808     0.00000000     0.37288980    -1.29861352
