# total energy = -19961.28030778 eV

CRYSTAL
PRIMVEC
        5.40736759     0.00000000     0.00000000
        0.00002691     5.20697186     0.00000000
        0.00000000     0.00000000     9.24024212
PRIMCOORD
24 1
Ti      1.95992665     3.08564665     3.42806400    -0.13761269     0.40207518    -0.67139062
Ti      3.44746785     2.12132510     5.81217843     0.13761269    -0.40207518     0.67139062
Ti      4.66351620     2.12132689     1.19202030    -0.12739204    -0.40253952     0.67250236
Ti      0.74387835     3.08564512     8.04822229     0.12739204     0.40253952    -0.67250236
Ti      1.95991324     0.48216083     1.19205737    -0.13775616     0.39606573     0.67055732
Ti      3.44748131     4.72481108     8.04818522     0.13775616    -0.39606573    -0.67055732
Ti      0.74386489     0.48215893     5.81214142     0.12722672     0.39608733     0.67233781
Ti      4.66352961     4.72481303     3.42810107    -0.12722672    -0.39608733    -0.67233781
O       1.71147547     1.83346324     4.71522494     0.25087626    -0.24172312     0.31967926
O       3.69591908     3.37350851     4.52501749    -0.25087626     0.24172312    -0.31967926
O       0.99225896     1.83348430     0.09513348    -0.25092099    -0.24206457     0.31932445
O       4.41513565     3.37348750     9.14510875     0.25092099     0.24206457    -0.31932445
O       3.69590562     0.77002253     0.09510352    -0.25078627     0.24151846     0.31942652
O       1.71148893     4.43694922     9.14513871     0.25078627    -0.24151846    -0.31942652
O       4.41512219     0.77000152     4.71525496     0.25107192     0.24175989     0.31925143
O       0.99227226     4.43697028     4.52498753    -0.25107192    -0.24175989    -0.31925143
O       0.19647863     3.16717547     2.49601998     0.27264888    -0.13458522     0.20494991
O       5.21091592     2.03979634     6.74422245    -0.27264888     0.13458522    -0.20494991
O       2.90016721     2.03974787     2.12413062     0.27260131     0.13448520    -0.20498822
O       2.50722728     3.16722393     7.11611171    -0.27260131    -0.13448520     0.20498822
O       0.19646518     0.56368949     2.12410108     0.27235372    -0.13470092    -0.20527618
O       5.21092932     4.64328232     7.11614120    -0.27235372     0.13470092     0.20527618
O       2.50721388     0.56373795     6.74425194    -0.27237429    -0.13444792    -0.20478047
O       2.90018067     4.64323380     2.49599050     0.27237429     0.13444792     0.20478047
