# total energy = -19950.23667464 eV

CRYSTAL
PRIMVEC
        6.33900282     0.00000000     0.00000000
        0.00002678     4.98662922     0.00000000
        0.00000000     0.00000000    10.09266902
PRIMCOORD
24 1
Ti      2.29759952     2.95507190     3.74430822     0.27545473     0.09194011    -0.16206029
Ti      4.04143014     2.03155749     6.34836085    -0.27545473    -0.09194011     0.16206029
Ti      5.46699146     2.03155923     1.30198599     0.27559999    -0.09202959     0.16245444
Ti      0.87203820     2.95507039     8.79068320    -0.27559999     0.09202959    -0.16245444
Ti      2.29758625     0.46175740     1.30202646     0.27581442     0.08841333     0.16196130
Ti      4.04144341     4.52487216     8.79064273    -0.27581442    -0.08841333    -0.16196130
Ti      0.87202493     0.46175550     6.34832039    -0.27599311     0.08835548     0.16185332
Ti      5.46700473     4.52487406     3.74434869     0.27599311    -0.08835548    -0.16185332
O       2.00634388     1.75587695     5.15021175     0.90604269     0.45858907    -0.13109186
O       4.33268584     3.23075244     4.94245733    -0.90604269    -0.45858907     0.13109186
O       1.16321351     1.75589707     0.10390970    -0.90540403     0.45781106    -0.13098490
O       5.17581626     3.23073238     9.98875909     0.90540403    -0.45781106     0.13098490
O       4.33267256     0.73743777     0.10387696    -0.90540686    -0.45765936    -0.13036501
O       2.00635716     4.24919162     9.98879184     0.90540686     0.45765936     0.13036501
O       5.17580298     0.73741771     5.15024449     0.90533590    -0.45795864    -0.13124072
O       1.16322668     4.24921174     4.94242458    -0.90533590     0.45795864     0.13124072
O       0.23032694     3.03315056     2.72628169    -0.68136779     0.05168022     0.33659275
O       6.10870278     1.95347883     7.36638738     0.68136779    -0.05168022    -0.33659275
O       3.39983518     1.95343232     2.32008494    -0.68013854    -0.05170490    -0.33611710
O       2.93919454     3.03319713     7.77258397     0.68013854     0.05170490     0.33611710
O       0.23031366     0.53983595     2.32005270    -0.68088236     0.05179489    -0.33583556
O       6.10871606     4.44679350     7.77261620     0.68088236    -0.05179489     0.33583556
O       2.93918126     0.53988246     7.36641956     0.68095075     0.05110172    -0.33703370
O       3.39984846     4.44674693     2.72624946    -0.68095075    -0.05110172     0.33703370
