# total energy = -19960.76899367 eV

CRYSTAL
PRIMVEC
        5.93400000     0.00000000     0.00000000
        0.00000000     9.29699974     0.00000000
        0.00000000     0.00000000     4.64899994
PRIMCOORD
24 1
Ti      4.46230298     6.88870201     2.30664199    -0.76254706     1.01029376     0.30564823
Ti      4.43372101     2.32042801     2.33667602     0.18972563    -0.19642670     0.87403810
Ti      1.47897601     7.00327799     2.35086200     1.11491816     0.58980897    -0.02534132
Ti      1.45310501     2.38908701     2.31556302    -0.15995841    -1.03695046     0.31797616
Ti      2.96296000     4.66857897     0.03291303     0.02991145    -0.29160100    -0.26251950
Ti      3.00682101     0.00822802     4.62921999    -0.35830007    -0.80180319    -0.40905469
Ti      0.02142099     4.65547898     0.00824199    -0.24582069    -0.17487930    -0.09660667
Ti      5.92794801     9.25962898     0.07947999     0.28145491     0.00309510    -0.93097649
O       4.35276700     5.58999097     0.83302897     0.89660545    -0.47021560     0.19635162
O       4.41031000     0.88735399     0.77901802     0.70303140     0.62702699     0.93647068
O       1.51299999     5.59094302     0.91720901    -0.33936440    -0.06525719    -0.17585787
O       1.46010301     0.92916000     0.97284200     0.09089007    -0.52635566    -0.93923590
O       4.47262998     8.34509301     3.60538203    -0.03360844     0.89656997     1.38568911
O       4.48051203     3.68490202     3.64936602    -0.32853414     0.68460301     1.06641274
O       1.45234998     8.35383200     3.72411099    -0.22789573     0.06330933    -0.10480386
O       1.42989302     3.72324001     3.84842398     0.54784367    -0.23603379    -0.86427768
O       2.99735800     6.18032402     3.24271299    -1.27510232    -1.13594079     0.09256206
O       3.01020399     1.39130902     3.26587000    -0.20998722     0.76693979    -0.98761354
O       5.84284398     5.92840999     3.24769599     1.10694234     1.17219773    -0.95362920
O       5.91686699     1.40005102     3.15350000     0.43221314     0.21913700     0.09170794
O       3.02430101     7.86980399     1.35341902    -1.20078635    -0.14651668     0.31198009
O       3.04508598     3.27116902     1.36462499    -0.58522778    -0.37170735     0.40366412
O       5.84451301     7.89292300     1.38734199     1.14077936    -0.46866600     0.16040270
O       0.10649602     3.32343099     1.48412999    -0.80718322    -0.11062844    -0.39298606
