# total energy = -19961.26820728 eV

CRYSTAL
PRIMVEC
        7.60600008     0.00000000     0.00000000
        0.00000000     7.60600008     0.00000000
       -1.89786986    -1.89786986     4.85670466
PRIMCOORD
24 1
Ti      3.75181701     6.61427000     1.26412502    -1.21721751     0.84762798     0.38562808
Ti      3.77557199     2.95191602     1.21039501    -0.13336728    -0.56362947     1.14137611
Ti     -0.02046498     6.64265301     1.21515099     1.26727048    -1.40891158    -0.96681434
Ti      0.04145098     2.76882503     1.18888501     0.11841349     1.35538325    -0.58137961
Ti      5.75914920     2.84769223     3.58179379    -0.76416017    -0.21301058     0.55694640
Ti      5.77616320    -0.99295179     3.59696181    -1.18222838     0.08810762     0.23475003
Ti      1.83662220     2.90805622     3.69333679     0.92988968     0.38187812    -1.26602838
Ti      1.82853124    -0.94114878     3.74816580     1.25876501    -0.37983847    -0.87117775
O       3.64885902     4.81672701     0.81447502     0.54333549    -0.68659433    -0.29990284
O       3.69341902     1.03988902     0.80705002     0.42617568    -0.63544530     0.23097514
O       0.15829602     4.65985702     0.66348402    -0.66828909     0.19516763     0.84428760
O       0.12891298     0.85292302     0.76244398    -0.55879940     0.87544758    -0.26512866
O       5.92497721     4.66105624     4.09367779    -0.48098622     1.69746068    -0.19968300
O       5.74842622     0.92908422     3.88180379    -0.35491470    -1.41837838     0.61470703
O       1.67836323     4.77958925     4.03863479     0.45138612     0.50665226     0.88425413
O       1.90460920     1.06548622     4.06687280     0.23448341    -1.10419820     0.17425170
O       3.81023321     3.04465623     3.22391979    -0.04063759    -0.34288579    -0.45475118
O       3.75241620    -1.19498976     3.21739281     0.54043169     0.84684456     0.53841851
O       0.04001220     2.87568925     3.14422580    -0.01614731    -0.51234675     0.11682403
O       0.02210220    -0.89111279     3.18902579    -0.95341143     0.05922667     0.04696790
O       5.62464901     6.56804801     1.60369801     1.44971577     0.12677754     0.12530662
O       5.81220600     2.96703800     1.62895903    -1.46917286    -0.38848766    -0.92228230
O       1.87890098     6.50338298     1.68295998    -0.43175394     0.85042071    -0.00512627
O       1.87881202     2.87686201     1.63464699     1.05121906    -0.17726734    -0.06241921
