# total energy = -4987.25386959 eV

CRYSTAL
PRIMVEC
        3.49889635     0.00000000     0.00000000
       -0.00000779     3.49889635     0.00000000
       -1.74947562    -1.74947951     4.46536991
PRIMCOORD
6 1
Ti     -0.00015408     2.62430479     1.11634236     0.00195918    -0.00190416     0.00190467
Ti      1.74956693    -0.87488804     3.34902727    -0.00195918     0.00190416    -0.00190467
O       0.00003495     0.87471814     0.72737222     0.00059984     0.00333549     1.85404863
O       1.74937780     0.87469850     3.73799745    -0.00059984    -0.00333549    -1.85404863
O      -0.00001976    -0.87470296     2.96005713     0.00338794     0.00050317     1.85826756
O       1.74943247     2.62411955     1.50531254    -0.00338794    -0.00050317    -1.85826756
