# total energy = -19923.92230602 eV

CRYSTAL
PRIMVEC
        7.50484144     0.00000000     0.00000000
        0.00002832     4.79245228     0.00000000
        0.00000000     0.00000000    11.46198673
PRIMCOORD
24 1
Ti      2.72016062     2.84000276     4.25231535     0.51503021    -0.23582090     1.73775168
Ti      4.78470864     1.95244945     7.20967151    -0.51503021     0.23582090    -1.73775168
Ti      6.47245222     1.95245107     1.47863229     0.51472193     0.23585252    -1.73835357
Ti      1.03241710     2.84000133     9.98335462    -0.51472193    -0.23585252     1.73835357
Ti      2.72014671     0.44377668     1.47867826     0.51468619    -0.23492153    -1.73796354
Ti      4.78472255     4.34867565     9.98330871    -0.51468619     0.23492153     1.73796354
Ti      1.03240313     0.44377495     7.20962553    -0.51438332    -0.23497089    -1.73871276
Ti      6.47246614     4.34867739     4.25236126     0.51438332     0.23497089     1.73871276
O       2.37533953     1.68750387     5.84896412     0.97293022     1.17205787    -1.48270921
O       5.12952979     3.10494829     5.61302273    -0.97293022    -1.17205787     1.48270921
O       1.37714475     1.68752322     0.11800758    -0.97211595     1.17206224    -1.48322291
O       6.12772464     3.10492900    11.34397890     0.97211595    -1.17206224     1.48322291
O       5.12951588     0.70872209     0.11797038    -0.97298267    -1.17202496    -1.48288301
O       2.37535345     4.08373007    11.34401610     0.97298267     1.17202496     1.48288301
O       6.12771067     0.70870280     5.84900125     0.97214218    -1.17203884    -1.48356178
O       1.37715854     4.08374942     5.61298554    -0.97214218     1.17203884     1.48356178
O       0.27268537     2.91504115     3.09616857    -2.02623804     0.70003117     0.51029320
O       7.23218396     1.87741101     8.36581822     2.02623804    -0.70003117    -0.51029320
O       4.02511473     1.87736645     2.63486126    -2.02747603    -0.70001112    -0.51046984
O       3.47975454     2.91508576     8.82712535     2.02747603     0.70001112     0.51046984
O       0.27267139     0.51881495     2.63482467    -2.02627764     0.70010805    -0.51037214
O       7.23219787     4.27363720     8.82716193     2.02627764    -0.70010805     0.51037214
O       3.47974062     0.51885956     8.36585475     2.02749660     0.69997641    -0.51049195
O       4.02512864     4.27359259     3.09613198    -2.02749660    -0.69997641     0.51049195
