# total energy = -19515.90228355 eV

CRYSTAL
PRIMVEC
        5.17600016     0.00000000     0.00000000
        0.00000000     5.50899976     0.00000000
        0.00000000     0.00000000     9.26300011
PRIMCOORD
23 1
Ti      1.90932999     3.27555500     3.36495802    -1.42205557     0.75420382     3.70645330
Ti      3.51066300     2.29119001     5.98013902    -1.07043626     0.23178992    -2.37974018
Ti      4.18556799     2.07792401     1.42364402     2.15516272     0.53652464    -0.09994833
Ti      0.82640198     3.47214498     7.81216500     0.84215230    -1.82403459     2.85450355
Ti      1.81019102     0.36690002     1.37460098    -1.34765733    -0.64157172    -2.07417217
Ti      3.30627199     5.18697302     7.99070401     0.87298241    -1.82570864     1.50326081
Ti      0.82273801     0.57978602     5.91993997     0.64607167    -1.59548863    -4.16285076
Ti      4.28789002     4.82202302     3.35787799     2.87281341    -0.15294316     2.18376368
O       1.75527501     1.89029400     4.91939999     0.69797146     0.88909680    -0.93472130
O       3.77987097     3.27054602     4.38711399    -0.60654300     0.36248994     0.24094279
O       4.94524401     2.88928101     0.01852099     0.75536391     0.83205891    -0.83312978
O       3.45337702     0.81570302     0.21797001     0.57606153    -0.35501240    -0.73709673
O       1.70799398     4.92779603     8.87701901    -2.06942231     0.07806206     1.33544485
O       4.45108802     0.53582499     4.82144399    -1.02118368     1.06552777     0.00522783
O       1.28945002     4.73628001     4.52452301     0.57855062    -0.88114438    -0.25531372
O       0.26499498     3.46178697     2.48989400    -0.98834271    -0.10649050    -0.25392250
O       0.05542100     2.03424101     6.79290802    -0.61803147    -0.44092944     0.93661312
O       2.37226102     2.02086098     1.93373702    -0.01644967     0.83751223     0.78978302
O       2.69859400     3.29416701     7.43666500     0.24300173    -0.18367839    -1.10301318
O       0.01938498     0.63096899     2.15373601     0.68844732     0.30756936    -0.63627936
O       4.97692400     4.54038002     6.95961700    -1.24350114     2.78819786    -0.55617353
O       2.71760300     0.68500598     6.74399802    -1.05947667     0.42834440    -0.59809101
O       2.82432302     4.65237303     2.15384100     0.53452123    -1.10437612     1.06845985
