# total energy = -19518.86348183 eV

CRYSTAL
PRIMVEC
        7.60600008     0.00000000     0.00000000
        0.00000000     7.60600008     0.00000000
       -1.89786986    -1.89786986     4.85670466
PRIMCOORD
23 1
Ti      3.82035198     6.66734299     1.17706298    -0.97187556     0.55463087     1.23562404
Ti      3.86340801     2.82300500     1.25794402    -0.95717501    -0.27967802    -0.30804913
Ti     -0.02880402     6.53789899     1.16872902     0.55063460     1.22533114    -0.01175586
Ti      0.02863098     2.78659099     1.13214599     0.48556407    -0.72141788     1.02132946
Ti      5.63972321     2.87667024     3.63820684     0.28370540     0.40550863     0.04857716
Ti      5.74869721    -0.89557079     3.61631679    -1.32196223    -0.70904264     0.26135659
Ti      2.04069221     2.88088625     3.75063383    -0.79886699     0.07174409    -0.62697094
Ti      1.80896020    -0.86377280     3.60223183     1.68118816    -0.39596803     0.17326979
O       3.59134301     4.84069901     0.80202601     0.41778899    -1.96539441     0.37136719
O       3.71733302     0.90078800     0.73600401     0.21327823     1.64680813     0.74082817
O       0.02760300     4.72739798     0.66235201    -0.14140893     0.34708286     1.42681520
O      -0.05713701     0.86564698     0.83551902    -0.27772604     0.39066513    -0.83922304
O       5.73099221     4.76291625     3.86013780     0.06046543    -0.27663898     1.06578822
O       5.94985320     0.95430624     4.15771179     0.00114671    -0.25812163    -1.86065251
O       2.02732022     4.80186121     4.06082181    -0.32171326    -0.90177929    -0.55819776
O       1.71049524     0.96466721     4.12909282     0.05315629     0.98612307     0.35196821
O       3.82923623     2.77366425     3.22421179     0.08837656    -0.19909370     0.21365644
O       3.69434921    -0.64460578     3.21361480     1.04485866    -0.45583542    -0.20830314
O      -0.01371675    -0.95311480     3.16950783    -1.32821002    -0.13607877     0.14759655
O       5.62990999     6.59113602     1.65903000     0.69175736    -0.11417605    -0.20482804
O       5.77806999     2.94699800     1.70488199     0.17393648    -0.47495106    -1.39521196
O       1.77467603     6.52279600     1.66088799     0.69705486     0.37994645    -0.79208364
O       1.80121601     2.60922702     1.82847298    -0.32397300     0.88033551    -0.25290126
