# total energy = -19074.72519357 eV

CRYSTAL
PRIMVEC
        7.60600008     0.00000000     0.00000000
        0.00000000     7.60600008     0.00000000
       -1.89786986    -1.89786986     4.85670466
PRIMCOORD
22 1
Ti      3.79605702     6.67765300     1.07907798     2.32015278     0.28521952     0.47202001
Ti      3.71605601     2.96860500     1.18574101     0.39876462    -0.16634298     1.44456071
Ti      0.12290099     6.72434199     1.22320200    -0.88124105    -0.49347818     0.77530539
Ti     -0.16418200     2.80091301     1.31460001    -0.54049776     1.41733426    -0.30449560
Ti      5.66054925     3.03730522     3.70249282    -1.78316509    -0.92331691    -1.54672764
Ti      5.70420124    -1.02372879     3.70727283     0.35614677     0.10225950    -1.22094150
Ti      1.66671122     2.83490223     3.60042184     1.81112919    -0.22943530     0.47763067
Ti      1.71971224    -0.86056477     3.71676982    -0.59463339     0.18987810     1.40653408
O       3.56018299     4.85389499     0.69749700    -0.24318685    -0.81777257     0.48105872
O       3.82205900     0.96987897     0.83502498     0.00419784     0.96859740     0.01357209
O       0.19441099     4.88969802     0.66376502    -0.91697811    -1.38502165     1.79194515
O      -0.27893399     1.01109701     0.73713999    -0.08786748    -0.23067869     0.56297127
O      -1.45844378     4.78574924     3.97391180    -0.60998468     0.69051526     1.15066756
O      -0.17195779    -0.73036277     3.23285982     3.46190170     1.09492963     0.36989524
O       1.78246424     4.83422320     4.02122179    -0.10151310    -0.15857259    -0.59386900
O       2.12797323     0.99189423     4.12653981    -0.86404473    -0.23232111    -0.43183776
O       3.71750521     2.86842825     3.27406082     0.39583253     0.20784317    -0.06220581
O      -0.20470375     2.34214825     3.24436381     0.28074297     0.39456087    -0.30622750
O       5.73961103     6.48849701     1.81819202    -2.25726049     0.33314156    -2.15063783
O       5.51397800     3.27216102     1.63242498     1.66701675    -0.58554428    -0.23322100
O       2.20450601     6.78591902     1.96258798    -1.83310519     0.01909585    -1.26405660
O       1.72473498     3.02184398     1.71293998     0.01759278    -0.48089109    -0.83194116
