# total energy = -19074.62574749 eV

CRYSTAL
PRIMVEC
        5.17600016     0.00000000     0.00000000
        0.00000000     5.50899976     0.00000000
        0.00000000     0.00000000     9.26300011
PRIMCOORD
22 1
Ti      1.97831899     3.38746699     3.22065403    -0.12764272     2.56884694     0.93457886
Ti      3.43120101     2.26529001     5.92979998    -0.03244168     0.28251729    -0.36131623
Ti      4.47037902     2.33785201     1.26880401     1.21022025    -0.88543684    -2.05005187
Ti      0.71020201     3.16498098     8.13488602    -0.57983437     0.07240023     0.94234077
Ti      1.91269598     0.62965700     1.39449900    -0.64374713    -1.23796246    -2.37392563
Ti      3.11865098     4.95718399     8.10045701    -0.03971276     0.77949655     1.47219493
Ti      0.51642699     0.17510697     5.98984101     1.21086714     1.72192062    -1.02270680
Ti      4.55568800     4.96180900     3.40582600    -0.14521416     0.05689571     0.16011705
O       3.60080999     3.44118298     4.36537898    -0.18915793    -0.32705961     1.21325492
O       0.90145900     1.87616301     0.17904299     0.07478673     0.42179169    -0.45767787
O       4.22622098     3.62144298     9.02974301    -0.75286479     0.11937045    -0.03785822
O       3.46526499     0.79352600     0.11534101     0.00832781     0.31945146    -0.52244296
O       1.61028500     4.72079400     9.19456198    -0.46620545    -0.59391528    -0.90413313
O       4.35874802     0.80623800     4.70758701    -0.74336662     0.06904469     1.05639803
O       1.13543298     4.98892103     4.20529900     0.05581404    -1.54987364     1.73869784
O       0.34645700     3.55371199     2.19612702    -0.38621043    -0.23058510     1.26263786
O       4.95411497     1.89568801     6.90417002     0.38064245    -0.59214122    -0.20074255
O       2.78838400     2.18565598     2.10563999    -0.13869487    -1.05662635     0.29366251
O       2.14065898     3.39350797     7.03163898     1.53830779     1.17354422    -1.37245795
O       0.08866201     0.69843502     2.12090400     0.42367502     0.64017047     0.17720589
O       2.28073500     0.91227099     6.59018302    -0.55803886    -2.04857837     0.05119917
O       2.91145999     4.79284397     2.33134102    -0.09950996     0.29672830     0.00102510
