# total energy = -19961.08146648 eV

CRYSTAL
PRIMVEC
        7.60600008     0.00000000     0.00000000
        0.00000000     7.60600008     0.00000000
       -1.89786986    -1.89786986     4.85670466
PRIMCOORD
24 1
Ti      3.82618901     6.52749398     1.24779202     1.07369334    -0.09574663    -0.45368212
Ti      3.84790899     2.69586699     1.20226499    -0.06077242     0.45224359     1.44965946
Ti      0.05063300     6.72010900     1.19653702    -1.27064325    -0.08218586    -1.40665569
Ti     -0.02588502     2.90999401     1.25609200     0.16396754    -0.10373248    -0.59787041
Ti      5.68963225     2.88339021     3.64195283    -1.71803208     0.44845429     0.32529301
Ti      5.74432922    -0.79607378     3.65297882    -1.49275451    -0.60677646    -0.76995749
Ti      1.81814624     2.74132220     3.64916880     1.46968811     1.64620829     0.14091527
Ti      1.84788421    -0.94375079     3.61862283     1.55417947    -1.13789483     0.30936167
O       3.85112898     4.64492703     0.76693998    -0.16087167     0.07897840     0.44795241
O       3.90110897     0.81717001     0.76321801    -0.52727972     1.21551004    -0.45803500
O      -0.03430100     4.77675302     0.77148899     0.52737022    -0.55172166     0.52376579
O      -0.08209201     1.04499701     0.73114600     1.06117540    -0.57317238     0.21368035
O       5.60251824     4.76929823     4.10399580     0.74927707     0.69312622    -0.41408043
O       5.39300220     0.98825021     3.96664879     1.49162297     0.57066376     1.04546184
O       1.96114523     4.64786724     4.07234084    -0.73447009     0.87113610    -0.56685647
O       1.93885623     0.89313224     4.10663681    -0.13724734    -0.41768820    -0.50943728
O       3.83087620     2.91422023     3.17431281     0.13425380    -0.28360333    -0.14177479
O       3.85669021    -0.78679079     3.16803581    -1.46587362    -1.02079235     0.18828247
O      -0.06379877     2.84310622     3.25594581     1.37379826    -0.03619266    -0.18675909
O       0.01106520    -0.63425476     3.10547780     0.10289610    -0.56923191     1.45113322
O       5.69702501     6.65010499     1.61142299     0.88645088    -0.35969027     0.22619777
O       5.79779200     2.71584200     1.61993602    -1.29404184     0.49643804     0.09809225
O       1.91419303     6.67877502     1.62158600    -0.28983697    -0.38897231     0.02534800
O       1.98039998     2.77317301     1.71408200    -1.43655017    -0.24535764    -0.94003475
