# total energy = -19519.91948577 eV

CRYSTAL
PRIMVEC
        5.17575250     0.00001323     0.00000000
        0.00001429     5.50856584     0.00000000
        0.00000000     0.00000000     9.26345890
PRIMCOORD
23 1
Ti      1.83141929     3.35090361     3.41757776     0.01961213     0.00656274    -0.04627833
Ti      3.32718121     2.18325520     5.76935440     0.01313834    -0.03535320    -0.03901959
Ti      4.52175951     1.96243579     1.39571521     0.08715606     0.05615600     0.02342173
Ti      0.87639397     3.29236377     7.94152469     0.01542894    -0.05571968     0.05640360
Ti      1.89364008     0.61660851     1.13207704    -0.01773368    -0.05132798     0.11121157
Ti      3.21239604     5.12704479     7.95032729    -0.05775420     0.06441387     0.00734719
Ti      0.67441100     0.61326913     5.72059407     0.02823767     0.03215603    -0.02220174
Ti      4.39703837     4.86643156     3.46028780     0.01923160     0.01659776     0.04004546
O       1.60181514     1.90282084     4.69771001     0.03833336     0.12410694    -0.07129466
O       3.51469743     3.57671463     4.53943158    -0.00912716    -0.02954610    -0.02798287
O       0.83851814     2.03159627     0.09104760    -0.09110682     0.00014038     0.07621652
O       3.58044335     0.86053495     0.08561295    -0.01603932     0.06215181     0.05919864
O       1.73435239     4.66373085     9.17599789    -0.03767233    -0.03730158    -0.05032756
O       4.18237689     0.79612682     4.74258974    -0.05476786    -0.07326773    -0.04299452
O       0.93126792     4.64511738     4.57561687     0.02792142    -0.05609686    -0.01543151
O       0.15728781     3.39296175     2.44045929    -0.02330140    -0.06690244    -0.00558701
O       4.97999512     2.13731786     6.76952533     0.05491133    -0.02374080     0.10094000
O       2.75638176     2.16847618     2.11766098     0.12439644    -0.00467915    -0.02258355
O       2.54704279     3.37265106     7.16411390    -0.04943796     0.02214492     0.01176023
O       0.23703924     0.57885682     2.21828596    -0.00545074     0.02221460    -0.08665649
O       4.96526171     4.78898099     7.32026570    -0.01972114     0.03380102     0.03138213
O       2.33648635     0.69530610     6.79412615    -0.01134474     0.00339591    -0.01660625
O       2.78598235     4.91055030     2.47352076    -0.03490968    -0.00990621    -0.07096324
