# total energy = -19073.53710497 eV

CRYSTAL
PRIMVEC
        5.17600016     0.00000000     0.00000000
        0.00000000     5.50899976     0.00000000
        0.00000000     0.00000000     9.26300011
PRIMCOORD
22 1
Ti      1.80250900     3.28907601     3.16823500     0.46550226     1.04696414     0.15362501
Ti      3.36240902     2.40449601     6.07087397     0.94746806    -0.33916180    -0.29306962
Ti      4.46378701     2.21841798     1.31077898     0.45540502    -1.39441106    -2.02612800
Ti      0.90671500     3.14066798     7.90649000     0.18200409    -1.16566687     0.63771070
Ti      1.80308099     0.51523100     1.25003001    -0.05733459     0.52471838    -1.33703507
Ti      3.30449798     5.00291898     8.15757899     0.16263725     0.97414815     1.05377705
Ti      1.39192498     0.26906800     5.88926002    -0.68882296    -0.27743628     0.23601939
Ti      4.20661501     4.97482798     3.43302402     2.06892660     0.40238705     2.29151480
O       3.16447302     3.42895100     4.41285301     1.07320174    -0.59970412     1.41978760
O       0.90125500     1.80326800     0.20667102    -0.10421739     0.84628123    -0.26745962
O       4.43893198     3.59057702     8.68725499    -1.29584547     0.02616124     0.80557911
O       3.47246302     0.77655603     0.23183901     0.45545155    -0.03899465    -0.25990186
O       1.68957998     4.59606301     8.98527497    -0.22435840     0.27778440     1.67922204
O       3.02411299     0.71449200     5.14079400     1.59483583    -0.02314688    -2.47498364
O       0.87902501     4.85632101     4.38194101    -1.06278723    -0.41267918     0.02070922
O       5.17340201     3.41390400     2.51305699    -0.05070963     0.47201409     0.11945247
O       0.08974502     2.18990099     6.44411301    -0.80603420    -0.90831298    -1.00827982
O       2.85577298     1.92934797     2.26504701    -1.86895718     0.10068469     0.53781122
O       2.28197799     4.04448701     6.77595900    -0.13845910    -0.54782515    -1.28164321
O       0.00429602     0.64295703     2.18624802     0.75583416    -0.28527223     0.73725562
O       2.36189301     1.20365102     7.27141999     0.43975316     1.58993016     0.90803941
O       2.83228798     4.68330899     2.34787998    -2.30349383    -0.26846209    -1.65200201
