# total energy = -4974.29853125 eV

CRYSTAL
PRIMVEC
        2.73688467     0.00000000     0.00000000
        1.83674449     3.87502051     0.00000000
       -0.00001200    -0.00005762     4.40678938
PRIMCOORD
6 1
Ti      2.28680849     1.93748147     2.20339459     0.00000000     0.00000000     0.00000000
Ti      0.00000000     0.00000000     0.00000000     0.00000000     0.00000000     0.00000000
O       1.72639438     0.75517325     0.85881832   -12.45761753     4.98662326     7.20881441
O       2.84722255     3.11978970     3.54797087    12.45761753    -4.98662326    -7.20881441
O       0.56040909     1.18228497     3.06221382    12.45782888    -4.98858424     7.21128601
O       1.27632329     2.69267785     1.34457536   -12.45782888     4.98858424    -7.21128601
