# total energy = -19073.45773042 eV

CRYSTAL
PRIMVEC
        5.17600016     0.00000000     0.00000000
        0.00000000     5.50899976     0.00000000
        0.00000000     0.00000000     9.26300011
PRIMCOORD
22 1
Ti      1.74625201     3.41843900     3.21134701     1.09058909    -0.08908387    -0.31238838
Ti      3.68754198     2.31255702     5.96967502    -1.67150050    -0.11314195    -0.34550163
Ti      4.35098901     2.12083801     1.21651002     0.36140622     1.43479102    -0.91109337
Ti      0.80515001     3.27617498     8.19046000    -0.15580120    -0.34741890     0.32198014
Ti      1.76507400     0.45108201     1.33073399     0.55449691     0.87726355    -1.37378644
Ti      3.20838500     5.12503399     8.04101500     0.75215337    -1.58380605    -0.41201712
Ti      0.52663402     0.21940599     6.03470598     1.93507004     1.63231276    -1.84550691
Ti      4.33172199     4.97140198     3.43682801     1.65418900    -0.56600055     1.13842448
O       3.32003600     3.40458498     4.37506002     1.04967948    -0.02060689     2.03143656
O       1.00420501     2.03389498     0.33945900    -0.73312643    -0.01378472    -1.39166075
O       4.27609599     3.81580401     9.01939601     1.33764983    -0.84577190     0.59372425
O       3.42388000     0.88561898     0.14480798     0.31205568     0.33314670    -0.85793373
O       1.57836502     4.80358400     9.04157800    -0.57105251     0.93493316     0.46367420
O       4.58628101     0.99621898     4.67030700    -1.11086430    -1.06337524    -0.07933476
O       1.03493100     4.72960698     4.25332702    -1.36627444     0.21972527     2.17982423
O       0.15870899     3.54224102     2.24852700    -0.83692807    -0.32727096     0.76626950
O       0.27679198     2.27791602     6.45675299     0.21748584    -0.20657947     1.70342872
O       2.76709800     1.95755201     2.27864798    -0.43312897    -0.48687456     0.37627672
O       2.62442499     3.24601199     7.52503501    -0.59019001    -0.26037160    -2.73407766
O       0.06564999     0.65720602     2.04423701    -0.32977444    -0.46940854     1.22493648
O       2.48056498     0.60810002     6.38713199    -0.39305677     0.02922188     0.80464040
O       2.84889701     4.67540499     2.33305799    -1.07307756     0.93210083    -1.34131468
