# total energy = -19958.13977484 eV

CRYSTAL
PRIMVEC
        7.60600008     0.00000000     0.00000000
        0.00000000     7.60600008     0.00000000
       -1.89786986    -1.89786986     4.85670466
PRIMCOORD
24 1
Ti      3.66841402     6.52908601     1.34290401     0.91641813     1.06152019    -0.58694785
Ti      3.86646998     2.90510801     1.27125299    -2.53614276    -0.87981434    -1.72339180
Ti     -0.03191701     6.59014301     1.12605998    -0.50746628     1.28474910     0.93402865
Ti      0.06355800     2.95829001     1.09990798    -0.14412067    -0.90156023     2.20340537
Ti      5.77856720     2.88670624     3.52848379     1.10653302     1.09547881     1.86895615
Ti      5.72302820    -0.97100078     3.69031683     2.06613130    -0.73366199     0.18468061
Ti      1.86370322     2.95113723     3.64040980    -1.07358946    -0.60916116     0.29387900
Ti      1.87501825    -0.99438279     3.66627482    -1.76996401     0.50083154     0.95078376
O       3.67778199     4.73007900     0.73818200     0.61989243    -0.32860999    -0.07957130
O       3.51336101     0.89199102     0.78463101     1.17033420     1.54855210     1.37041521
O       0.01840500     4.80903701     0.76528503    -0.81016493    -0.57901316    -1.15267328
O       0.21159301     0.96858699     0.78374601    -1.27743045    -0.67569619    -0.49640513
O      -1.39803380     4.75704122     4.06343082    -1.67493112    -0.62771553    -0.44580888
O      -1.57529479     0.97638521     4.22352784    -1.54087941    -0.24793208    -4.56931558
O       1.53382222     4.78076725     4.32256182     0.85833560    -1.50404577    -2.38411285
O       1.67291725     0.95386522     4.01959282     1.85539795    -0.36796254     0.30276576
O       3.88614924     3.13531425     3.39491183    -1.57861473    -1.01235759    -1.64394649
O       3.86336022    -1.28604476     3.39430280    -0.96085400     0.95919616    -0.52156184
O       0.00522023     2.68019223     3.21821182     0.41901129     0.78757470    -1.01531822
O      -0.01903080    -1.09492377     3.05278784    -0.17542438     1.16385681     0.98993293
O       5.68913302     6.53823999     1.51100102    -1.13751457     0.75911746     0.65823119
O       5.62525900     3.11981300     1.48769997     1.16432450    -1.06050126     0.98339616
O       1.81242600     6.35567601     1.70730800     2.25115798     0.59716516     0.73381934
O       1.80259600     3.07129200     1.38461598     2.75956013    -0.23001020     3.14475832
