# total energy = -4989.99698049 eV

CRYSTAL
PRIMVEC
        3.69941386     0.00000000     0.00000000
        0.55180003     3.65802947     0.00000000
       -2.12564028    -1.82904342     4.73468573
PRIMCOORD
6 1
Ti      0.41371550     2.74366192     1.18367118     0.00131178    -0.00131178     0.00000000
Ti      1.71185850    -0.91467554     3.55101404    -0.00131178     0.00131178     0.00000000
O       0.13798892     0.91450189     0.77124149    -0.00012496     0.00026020     0.24280479
O       1.98758491     0.91448435     3.96344373     0.00012496    -0.00026020    -0.24280479
O      -0.13796628    -0.91448242     3.13858436     0.00026020    -0.00012496     0.24280479
O       2.26354006     2.74346866     1.59610086    -0.00026020     0.00012496    -0.24280479
