# total energy = -4984.58914124 eV

CRYSTAL
PRIMVEC
        3.24160777     0.00000000     0.00000000
        2.39017131     4.48157046     0.00000000
       -0.00001537    -0.00006924     5.25596103
PRIMCOORD
6 1
Ti      2.81588159     2.24075050     2.62798063     0.00000000     0.00000000     0.00000000
Ti      0.00000000     0.00000000     0.00000000     0.00000000     0.00000000     0.00000000
O       2.08660994     0.87337854     1.02430945    -1.01972535     0.92596978     0.49992086
O       3.54515327     3.60812257     4.23165186     1.01972535    -0.92596978    -0.49992086
O       0.72926513     1.36734413     3.65229110     1.01905223    -0.92543293     0.49987895
O       1.66089045     3.11415706     1.60367015    -1.01905223     0.92543293    -0.49987895
