# total energy = -19959.74029813 eV

CRYSTAL
PRIMVEC
        7.60600008     0.00000000     0.00000000
        0.00000000     7.60600008     0.00000000
       -1.89786986    -1.89786986     4.85670466
PRIMCOORD
24 1
Ti      3.88716801     6.67246500     1.21549099    -0.71217579     0.01875132     0.70720044
Ti      3.82417899     2.93904701     1.20460602    -1.62956399    -0.11936634    -0.69268913
Ti      0.03127602     6.40172602     1.30643899     0.62637393     0.38497348    -0.02681173
Ti     -0.04332401     2.90046602     1.06673497     1.33059626    -1.70348015    -0.17633763
Ti      5.71494322     2.94761322     3.51175681     0.17362743    -3.15213431    -0.07341839
Ti      5.72455921    -1.08721980     3.79966580    -2.31189080     1.42351776    -0.00877955
Ti      1.81033125     2.98400125     3.50356081     0.21285168    -1.10610107     0.26441080
Ti      1.81720224    -0.90144477     3.71648184     2.16022265     0.95014973    -0.01174455
O       3.42176498     4.85231598     0.69763702     1.38222454    -0.31851018     0.15938737
O       3.89863698     1.05915599     0.93597999    -0.43534115    -0.66145407    -1.01685934
O       0.48266199     4.61180699     0.78401298    -1.24161909     2.58872723    -0.21061739
O      -0.04775798     0.92711500     0.75715099     0.18574016    -1.27122458     0.76803122
O       5.48184625     4.53302821     4.23829680     0.06059475     2.37825511     0.23758159
O       5.77784122     0.93317820     4.01593583    -0.29056125     0.24238313    -0.63220211
O       2.08659321     4.89174821     4.13424981    -0.47934482    -1.43001108     0.08676756
O       1.89179724     1.13165021     3.91897680    -0.39922871    -1.19050605     0.83863888
O       3.76420124     2.86433321     3.15897080     0.45232972     0.60989958    -0.57009297
O       3.80362722    -1.03629479     3.43688781     0.90141625     0.57420288    -1.40609699
O      -0.09395976     3.19485325     3.13349880     0.86731492    -0.20128223    -0.33174082
O      -0.02194577    -1.24089578     3.47766981     0.04532908     0.17301962    -1.53144320
O       5.71957997     6.55012801     1.60148901     0.73586362    -0.65599176     0.84139691
O       5.71341897     2.90318900     1.44015202    -0.68203550     0.74642392     0.98273281
O       1.92988001     6.57221502     1.73671999    -1.36128676     1.15470960     0.44945934
O       1.84466601     2.63509998     1.50646301     0.40856310     0.56504847     1.35322737
