# total energy = -4987.55364379 eV

CRYSTAL
PRIMVEC
        4.13936358     0.00000000     0.00000000
        1.01891106     4.01200089     0.00000000
       -2.57917501    -2.00602976     5.32516176
PRIMCOORD
6 1
Ti      0.76404888     3.00915430     1.33129036     0.00039286    -0.00039286     0.00000000
Ti      1.81505094    -1.00318303     3.99387107    -0.00039286     0.00039286     0.00000000
O       0.25477117     1.00299451     0.86742528    -0.00074922    -0.00126036    -1.22683550
O       2.32432847     1.00297668     4.45773615     0.00074922     0.00126036     1.22683550
O      -0.25474159    -1.00297150     3.53000599    -0.00126036    -0.00074922    -1.22683550
O       2.83384122     3.00894263     1.79515544     0.00126036     0.00074922     1.22683550
