# total energy = -4976.80321754 eV

CRYSTAL
PRIMVEC
        3.95812641     0.00000000     0.00000000
       -0.00000679     2.92557186     0.00000000
       -1.97908743    -1.46282420     4.49367292
PRIMCOORD
6 1
Ti     -0.00017093     2.19428662     1.12341797    -0.00671032    -0.01323913    15.76491848
Ti      1.97920293    -0.73153896     3.37025428     0.00671032     0.01323913   -15.76491848
O       0.00004128     0.73138604     0.73198247     0.00629535     0.01333297    -5.69816193
O       1.97899057     0.73136157     3.76168977    -0.00629535    -0.01333297     5.69816193
O      -0.00001772    -0.73138323     2.97881879    -0.00002725    -0.00024734     2.25444436
O       1.97904952     2.19413074     1.51485351     0.00002725     0.00024734    -2.25444436
