# total energy = -4943.47635473 eV

CRYSTAL
PRIMVEC
        4.52384460     0.00000000     0.00000000
       -0.00000641     2.43591662     0.00000000
       -2.26194742    -1.21801312     4.88033139
PRIMCOORD
6 1
Ti     -0.00019363     1.82702140     1.22008265    -0.02820681    -0.02743831    44.41808256
Ti      2.26208407    -0.60911776     3.66024835     0.02820681     0.02743831   -44.41808256
O       0.00004802     0.60896962     0.79496605     0.02812479     0.02703979   -32.60501100
O       2.26184232     0.60893393     4.08536505    -0.02812479    -0.02703979    32.60501100
O      -0.00001847    -0.60898613     3.23513174    -0.00110403    -0.00012778     0.22004717
O       2.26190872     1.82688968     1.64519936     0.00110403     0.00012778    -0.22004717
