# total energy = -19873.46474581 eV

CRYSTAL
PRIMVEC
        6.82940529     0.00000000     0.00000000
        0.00002150     2.75703720     0.00000000
        0.00000000     0.00000000    10.57021663
PRIMCOORD
24 1
Ti      2.47534378     1.63381766     3.92147500    -1.53035511     0.78830849    -2.57316306
Ti      4.35408320     1.12321945     6.64874173     1.53035511    -0.78830849     2.57316306
Ti      5.88992986     1.12322039     1.36359114    -1.52769839    -0.78906337     2.57446789
Ti      0.93949712     1.63381686     9.20662569     1.52769839     0.78906337    -2.57446789
Ti      2.47533312     0.25529910     1.36363351    -1.53035511     0.78830849     2.57316306
Ti      4.35409386     2.50173810     9.20658331     1.53035511    -0.78830849    -2.57316306
Ti      0.93948646     0.25529812     6.64869936     1.52769839     0.78906337     2.57446789
Ti      5.88994052     2.50173908     3.92151737    -1.52769839    -0.78906337    -2.57446789
O       2.16155756     0.97079965     5.39390063     9.98540682    -2.14128853     6.39107706
O       4.66786947     1.78623746     5.17631610    -9.98540682     2.14128853    -6.39107706
O       1.25320031     0.97081075     0.10882631    -9.99110465    -2.14002817     6.39016046
O       5.57622676     1.78622635    10.46139013     9.99110465     2.14002817    -6.39016046
O       4.66785882     0.40771886     0.10879202    -9.98540682     2.14128853     6.39107706
O       2.16156816     2.34931825    10.46142442     9.98540682    -2.14128853    -6.39107706
O       5.57621611     0.40770775     5.39393496     9.99110465     2.14002817     6.39016046
O       1.25321082     2.34932940     5.17628177    -9.99110465    -2.14002817    -6.39016046
O       0.24814119     1.67698631     2.85527920     4.23977922    -1.59577814     2.80311207
O       6.58128579     1.08005080     7.71493753    -4.23977922     1.59577814    -2.80311207
O       3.66285282     1.08002517     2.42986273     4.23581304     1.59625688    -2.80329333
O       3.16657421     1.67701198     8.14035381    -4.23581304    -1.59625688     2.80329333
O       0.24813053     0.29846771     2.42982897     4.23977922    -1.59577814    -2.80311207
O       6.58129645     2.45856940     8.14038757    -4.23977922     1.59577814     2.80311207
O       3.16656355     0.29849333     7.71497119    -4.23581304    -1.59625688    -2.80329333
O       3.66286348     2.45854377     2.85524549     4.23581304     1.59625688     2.80329333
