# total energy = -4987.31121026 eV

CRYSTAL
PRIMVEC
        3.60998218     0.00000000     0.00000000
        1.22594199     3.39544365     0.00000000
       -2.41799502    -1.69774495     4.68154698
PRIMCOORD
6 1
Ti      0.91935242     2.54671298     1.17038679     0.00084024    -0.00084024     0.00000000
Ti      1.49857611    -0.84901471     3.51116028    -0.00084024     0.00084024     0.00000000
O       0.30652310     0.84885624     0.76258580     0.00021777     0.00067569    -0.80855131
O       2.11140525     0.84884190     3.91896138    -0.00021777    -0.00067569     0.80855131
O      -0.30649383    -0.84883573     3.10335928     0.00067569     0.00021777    -0.80855131
O       2.72442212     2.54653383     1.57818789    -0.00067569    -0.00021777     0.80855131
