# total energy = -19958.74922426 eV

CRYSTAL
PRIMVEC
        5.93400000     0.00000000     0.00000000
        0.00000000     9.29699974     0.00000000
        0.00000000     0.00000000     4.64899994
PRIMCOORD
24 1
Ti      4.47524301     6.98766700     2.12861401     2.13400047     0.85256990     0.94212248
Ti      4.43999298     2.55361298     2.44568500    -0.77066635    -0.85600823    -0.42279802
Ti      1.50995902     6.75296699     2.34931701    -1.93008389     1.45970348     0.98224379
Ti      1.47818600     2.36713700     2.45863402     1.04401842    -1.17825654    -1.39099664
Ti      2.95394102     4.85287501     0.02474200     1.10926508    -0.75997261     0.54664707
Ti      2.92092501     9.06451900     0.05800402    -0.02253187     1.64067270    -0.19034424
Ti      0.10131400     4.59149801     4.57347900    -1.63035589     0.12311655     0.37309266
Ti      5.88595198     0.00563801     4.59450099    -0.21540762     0.29822777     1.39810805
O       4.46982201     5.63864602     0.82841100    -0.38658042    -0.62427051    -0.39526612
O       4.53294201     0.62994202     1.08120501    -1.39185539     1.37986684    -0.98877182
O       1.39808598     5.73920102     0.66684499     0.64857387     0.05852707     0.61470086
O       1.34034099     0.69002300     1.05069402     1.96271249     0.81819758    -0.64376410
O       4.58253698     8.29445900     3.69865301    -1.79481759     0.30054176     0.14278704
O       4.39839901     3.98165801     3.74918600    -0.12419307    -2.28293219    -1.24717370
O       1.40702299     8.17167897     3.77175202     1.17362521     0.66166182    -0.26910873
O       1.50755201     3.83292602     3.72663998     0.91868944    -0.22044647    -0.10710011
O       3.10551802     6.12235900     3.20847998    -1.58883770    -0.62818141    -0.11893311
O       2.92793598     1.57606199     3.38916602     0.91195726    -0.13786774    -0.61937512
O       0.00284401     5.75812599     2.94079800     0.75026386     1.59057114     0.30284933
O       5.88765000     1.68291299     3.34454299    -0.78898521    -0.83786318     0.37096224
O       2.95435700     7.80356698     1.36873601    -0.58233966    -0.34269115     0.15314987
O       2.81103400     3.25672301     1.32774901     1.50050433     0.17830581     0.77950246
O       5.91241201     7.89845698     1.45700902     0.88288681    -1.41120320     0.23507348
O       0.13215101     3.33754298     1.44505601    -1.80984338    -0.08226968    -0.44760763
