# total energy = -19075.63685711 eV

CRYSTAL
PRIMVEC
        5.17600016     0.00000000     0.00000000
        0.00000000     5.50899976     0.00000000
        0.00000000     0.00000000     9.26300011
PRIMCOORD
22 1
Ti      1.89413901     3.20906801     3.41071502    -0.38300015     1.28100763    -0.75354948
Ti      3.29905698     2.23825398     5.86120299     0.33717768     0.82319426     0.65926169
Ti      4.46586398     2.26113502     1.23282699     1.07007733    -0.02754989    -1.24763033
Ti      0.68477002     3.31900998     8.05892099     0.33627291    -0.58073092     1.14574699
Ti      1.87640400     0.53918198     1.23787100     0.01785375    -0.57140398    -0.95160960
Ti      3.32656499     5.00801501     8.05604501    -1.07675552     0.12582495     1.61613563
Ti      0.72806402     0.52051599     5.84308502    -0.14932561     0.12060535    -0.84091585
Ti      4.46321798     4.96230299     3.49454601    -0.08987012    -0.57204573    -1.43886108
O       3.40662400     3.59263600     4.45866500     0.42993412    -0.93224224     1.69053747
O       0.90211598     1.91450201     0.00014600    -0.22522229    -0.22636412     1.15798596
O       4.25111400     3.63761098     9.16389902    -0.51732620     0.47122939    -0.07933887
O       3.49836201     0.84152798     0.18459401     0.24450892    -0.46349808    -1.58474142
O       1.69108602     4.64049099     9.01781398     0.00247520     1.42213348     1.28803574
O       4.25158899     0.79880100     4.64720598     0.20337254     1.34416860     1.53490930
O       0.94368301     4.63626799     4.49124300     0.04375608     0.88888211     1.50245786
O       0.13885802     3.34938697     2.59203500     0.05292104    -0.86179888    -0.82627856
O       5.01893898     2.26137701     6.74261798    -0.30148561    -1.74209762    -1.62735130
O       2.79731498     2.11641901     2.17119600    -0.75535388    -0.16183326     0.27012123
O       2.32258001     3.23277599     7.17984502     1.77586650     0.31913418    -1.80449137
O       0.16548399     0.59937700     2.04702101     0.14842418    -0.07780212     0.75082976
O       2.46750002     0.61106103     6.68755402    -0.41960959    -0.18460939    -0.47241878
O       2.82024698     4.91518700     2.43976002    -0.74469125    -0.39420400     0.01116528
