# total energy = -4984.43447452 eV

CRYSTAL
PRIMVEC
        4.14537898     0.00000000     0.00000000
        0.00000000     3.12731271     0.00000000
        0.00000000    -0.00008268     5.48290570
PRIMCOORD
6 1
Ti      2.07268943     1.56361485     2.74145291     0.00000000     0.00000000     0.00000000
Ti      0.00000000     0.00000000     0.00000000     0.00000000     0.00000000     0.00000000
O       2.07268943     0.60945101     1.06853759    -0.00000000    -0.36425089     1.55971712
O       2.07268943     2.51777869     4.41436822    -0.00000000     0.36425089    -1.55971712
O       0.00000000     0.95413097     3.80999163     0.00000000     0.36389299     1.56319351
O       0.00000000     2.17309873     1.67291418     0.00000000    -0.36389299    -1.56319351
