# total energy = -19011.45891547 eV

CRYSTAL
PRIMVEC
        7.60600008     0.00000000     0.00000000
        0.00000000     7.60600008     0.00000000
       -1.89786986    -1.89786986     4.85670466
PRIMCOORD
22 1
Ti      4.61252698     5.98663398     0.48866101    -3.37517425     9.30257196    13.60042574
Ti      4.54707723     3.36521123     3.52438383    -2.65070730     9.10632987   -10.86447966
Ti      1.08496502     5.90871898     0.46738401    -1.56820613    16.28883494     9.96573479
Ti      0.08931401     2.91128901     0.56966502    -5.01100402    -5.92899180    13.97686418
Ti     -1.39410678     2.49167924     4.23005079   -39.53402449    30.04310681    26.35543903
Ti     -1.29918677     1.35335325     3.34436879    -3.87200438   -41.26300922   -41.93783329
Ti      0.07312224     2.54393020     3.98470983    51.26165183     6.46435764    -5.01165630
Ti      0.23478224    -0.93655779     4.07938980    14.48897284    -1.23279891    -1.33741123
O       4.02232798     4.82433198     2.13276101     1.48775037     0.03727690    -0.67212338
O       4.02869599     0.41511098     0.21226898    -0.60681348    -0.52195470    -0.17419899
O       1.21886603     4.34866100     1.13157400     2.33430620    -2.67594603     2.20065918
O       0.57837301     1.20581699     0.28950102     0.94219190    -5.10398877     6.23870726
O      -1.17610178     4.14187520     3.33093181     0.64243073     2.01318892    -1.07335112
O       4.03262021     1.85200824     3.01432882     2.52547499    -5.01374636    -1.07190693
O       0.84208722     4.53302123     4.77878982     0.47915379    -0.41063412    -0.88409755
O       0.97410223     0.84823123     4.16865983    -2.84614823    -2.77390792     0.00373299
O       2.98055324     3.13499325     4.25080682    -3.69654761    -7.86749220    -6.89153630
O       0.98531825     3.01045524     2.57021681     0.12335978    -2.08791703    -1.85269469
O       6.78398001     6.17072300     0.20477397    -1.83531171     0.60112954     3.96699356
O       6.15916000     2.56677901     1.23571101     0.08066402    -0.11698987    -0.00343217
O       1.15752898     6.62162298     2.16383398    -2.12636070     0.05761921     1.73166690
O      -1.41382678    -0.57714278     3.83738884    -7.24365441     1.08296139    -6.26550228
