# total energy = -4967.86730173 eV

CRYSTAL
PRIMVEC
        5.06769477     0.00000000     0.00000000
       -0.00000718     2.72875906     0.00000000
       -2.53387553    -1.36444093     5.46703790
PRIMCOORD
6 1
Ti     -0.00021691     2.04666332     1.36675926    -0.01345253    -0.01667695    24.10015675
Ti      2.53402860    -0.68234503     4.10027821     0.01345253     0.01667695   -24.10015675
O       0.00005379     0.68217908     0.89053574     0.01135065     0.01421461   -16.54788962
O       2.53375779     0.68213911     4.57650183    -0.01135065    -0.01421461    16.54788962
O      -0.00002070    -0.68219758     3.62405469    -0.00193424    -0.00018409    -1.82846126
O       2.53383217     2.04651576     1.84298289     0.00193424     0.00018409     1.82846126
