# total energy = -19959.30902798 eV

CRYSTAL
PRIMVEC
        7.60600008     0.00000000     0.00000000
        0.00000000     7.60600008     0.00000000
       -1.89786986    -1.89786986     4.85670466
PRIMCOORD
24 1
Ti      3.85999899     6.53016300     1.25224499     0.42732676     1.05576863     0.90080021
Ti      3.65910198     2.77009299     1.15730101     2.72248301    -0.42117282     0.61817211
Ti      0.07571299     6.77617099     1.30971200    -0.96457851    -0.98916752    -1.43926423
Ti      0.04475300     2.93860700     1.25890098    -3.41363668     1.18007020    -1.33940178
Ti      5.70632123     2.95239725     3.57908880     0.71776099    -0.39959072     1.04109611
Ti      5.69398325    -0.91448978     3.63869379    -0.75447148     0.97261423     0.54094745
Ti      1.95464423     2.72349824     3.61568579     0.18076559     0.34508254     0.28169300
Ti      1.84330725    -1.14334979     3.67440780     0.48075533     0.50966251    -0.39950921
O       3.82673502     4.74210403     0.83810299    -0.09572015    -1.58478204    -1.67754593
O       3.75339698     0.85262901     0.89696798    -0.07509861     0.49906648    -1.41433481
O      -0.02455700     4.82435198     0.84556899     0.24780250     0.03220025    -0.63304800
O      -0.15164802     1.02637902     0.78776098     0.90594833     0.56675902     0.58153156
O       5.57076623     4.86111022     4.10121682     0.33862752    -0.38471097     0.57679995
O       5.64834621     1.09139220     3.74833180     1.04138947    -1.56134745     2.16502702
O       1.87568824     4.59597321     3.93502183     0.70829625     0.72394836     0.78409651
O       1.96288125     0.77856124     3.94450580    -0.47670276     2.32846028     1.13073148
O       3.97949023     2.65502720     3.10529180    -6.33888313     0.59254771    -0.11774217
O       3.82399224    -0.89465579     3.09796481    -0.64273952    -0.62638138     1.25182483
O      -0.04717075     3.09752422     3.13689881     2.21621024    -1.19507645     0.69675765
O      -0.02342980    -0.87879879     3.31577480     1.78109381    -0.30664325     0.18523880
O       5.80761898     6.58552298     1.76723600    -0.99783059    -0.00908320    -1.86768602
O       5.66442700     2.96903098     1.68369903     0.38756026     0.18973206    -2.09657394
O       1.94468898     6.61619102     1.71520502    -1.03862759    -0.15804757    -0.52708868
O       1.82774599     3.12915801     1.57196002     2.64226868    -1.35990916     0.75747761
