# total energy = -19960.24811707 eV

CRYSTAL
PRIMVEC
        5.93400000     0.00000000     0.00000000
        0.00000000     9.29699974     0.00000000
        0.00000000     0.00000000     4.64899994
PRIMCOORD
24 1
Ti      4.39489803     6.80706298     2.27207698     0.85378294     0.61151037     0.71980297
Ti      4.49419602     2.36982099     2.32794799    -0.39526689    -2.22565057     0.56077503
Ti      1.49095902     7.00859998     2.28338602    -0.64507048    -0.11295889     0.20669260
Ti      1.49931102     2.47368102     2.31949200    -0.14309171    -2.16502779     0.47977754
Ti      2.93534599     4.64792302     4.64000197    -0.40342578    -1.14435859     0.20058263
Ti      2.95708899     9.19543899     4.55872601    -0.22170734     2.24602322     0.25623701
Ti      5.92089001     4.67703703     0.05273997     0.83440068    -0.74843581    -0.68823341
Ti      0.01431398     9.19794200     0.11760001    -0.13559772     2.27169313     0.23523726
O       4.50664401     5.58379701     0.86850899    -0.88822031     1.08869213     0.70287636
O       4.51631399     1.02854399     0.90841001    -0.15253384    -0.79459896    -0.33471302
O       1.47636299     5.58949402     0.88499302     0.11589278     0.02407762    -0.10973472
O       1.52689201     0.86062800     0.82391199    -0.06023583     0.38371389     0.56083957
O       4.50372999     8.47164299     3.79377997    -0.36538269    -1.38211861    -1.06563961
O       4.44326700     3.76794300     3.90965201     0.12841122    -0.36234930    -1.11547866
O       1.46825001     8.43602000     3.72401700     0.30191036    -1.05219993    -0.61723288
O       1.51188602     3.65912199     3.82159798    -0.42483485     1.09530218     0.59721195
O       2.86069798     5.99410702     3.28551200     1.41437414     1.09288946    -1.10295456
O       2.89437302     1.47949402     3.15908102     0.55272619    -0.56644252     0.41718658
O       0.14100902     6.03685502     3.07677401    -1.97984324    -0.87782508     1.70263965
O       0.08058899     1.45511202     3.13917502    -0.92881470     0.26029190     0.15474987
O       2.98147199     7.81986400     1.40104402     0.99729246     0.03202850     0.03912243
O       2.93064103     3.32467498     1.49250998     0.65226675     0.92110139    -0.73304569
O       5.91619700     7.79196800     1.44026802    -0.53033933     0.91407199    -0.51336259
O       5.78734599     3.40045602     1.50821401     1.42330642     0.49057026    -0.55333529
