# total energy = -19918.22077894 eV

CRYSTAL
PRIMVEC
        6.39205434     0.00000000     0.00000000
        0.00003503     6.80307881     0.00000000
        0.00000000     0.00000000    11.44037175
PRIMCOORD
24 1
Ti      2.31683302     4.03149821     4.24429640     0.05593360    -0.89865900     0.63749035
Ti      4.07525636     2.77158066     7.19607567    -0.05593360     0.89865900    -0.63749035
Ti      5.51274829     2.77158300     1.47584392     0.05596162     0.89868445    -0.63764385
Ti      0.87934109     4.03149613     9.96452828    -0.05596162    -0.89868445     0.63764385
Ti      2.31681564     0.62995894     1.47588980     0.05593360    -0.89865900    -0.63749035
Ti      4.07527374     6.17312013     9.96448241    -0.05593360     0.89865900     0.63749035
Ti      0.87932370     0.62995640     7.19602979    -0.05596162    -0.89868445    -0.63764385
Ti      5.51276568     6.17312267     4.24434228     0.05596162     0.89868445     0.63764385
O       2.02313789     2.39547976     5.83793425     1.41522287     1.30910851     0.00739655
O       4.36895148     4.40759918     5.60243782    -1.41522287    -1.30910851    -0.00739655
O       1.17295132     2.39550716     0.11778504    -1.41463254     1.30928721     0.00643753
O       5.21913812     4.40757178    11.32258670     1.41463254    -1.30928721    -0.00643753
O       4.36893410     1.00605971     0.11774792    -1.41522287    -1.30910851     0.00739655
O       2.02315528     5.79701917    11.32262382     1.41522287     1.30910851    -0.00739655
O       5.21912073     1.00603231     5.83797137     1.41463254    -1.30928721     0.00643753
O       1.17296858     5.79704663     5.60240070    -1.41463254     1.30928721    -0.00643753
O       0.23225940     4.13801819     3.09032989     0.49936344    -0.28833570     0.33235994
O       6.15982997     2.66506068     8.35004218    -0.49936344     0.28833570    -0.33235994
O       3.42829170     2.66499728     2.62989251     0.49947657     0.28866660    -0.33266051
O       2.96379768     4.13808159     8.81047936    -0.49947657    -0.28866660     0.33266051
O       0.23224202     0.73647872     2.62985598     0.49936344    -0.28833570    -0.33235994
O       6.15984736     6.06660015     8.81051589    -0.49936344     0.28833570     0.33235994
O       2.96378029     0.73654213     8.35007865    -0.49947657    -0.28866660    -0.33266051
O       3.42830908     6.06653675     3.09029336     0.49947657     0.28866660     0.33266051
