# total energy = -39035.04796633 eV

CRYSTAL
PRIMVEC
        7.60600008     0.00000000     0.00000000
        0.00000000     7.60600008     0.00000000
       -3.79573973    -3.79573973     9.71340985
PRIMCOORD
46 1
Ti      1.88187247     5.11448743     6.20049663    -0.55603546     1.13915570    -0.18691927
Ti      3.78647802     6.50521298     1.31711900     2.02430277    -0.42447309     0.12125481
Ti      1.82033344     1.10049542     6.18939661     0.41498597    -1.06504208    -0.77356989
Ti      3.84775002     2.41087498     1.33490899     0.97894583     0.51980038     0.13773610
Ti     -1.91841655     4.89328944     5.99107161     0.32146900    -0.37348964    -0.63854502
Ti     -0.00548498     6.54253400     1.12028501    -1.21310117     1.07812900     0.54747805
Ti     -1.92849753     1.09465643     6.03549562    -0.19528307     0.10607759    -1.28982626
Ti      0.08878901     2.79162801     1.11104902    -1.12985988    -0.57576971     1.13180312
Ti      3.73131647     0.82067745     8.44492462     0.46553954     0.84777839    -0.98098421
Ti      5.69476601     2.96854298     3.55758499     0.96767643    -0.40726829     1.21704345
Ti      3.83191545    -2.95544854     8.35519563    -1.18511085    -0.16904598     1.26430908
Ti      5.77721198    -0.92562198     3.59605300    -0.50353531     1.07838611     0.50847235
Ti     -0.03831958     0.70523743     8.43366262    -0.41746118    -0.43354318     0.41377061
Ti      1.81358701     3.14778298     3.59725699    -0.45077651    -0.11363560     1.37608346
Ti     -0.02909454    -3.09901253     8.47689164     1.10938412     0.59358721     0.09754512
Ti      1.88081702    -0.75449801     3.60394399     0.61884393    -0.09941585     1.62720706
O       1.86999948    -0.69256454     5.84168265    -0.26021862    -0.24780456    -1.73845179
O       4.17034002     0.63370701     0.95043399    -0.92096204     1.62132411    -1.50166030
O      -1.71386954     3.01095346     5.57704063    -0.77806059    -0.39576826     0.51191249
O       0.05988302     4.76355100     0.79353103     0.77676963    -1.96687382    -0.28038122
O      -1.75952457    -0.86069055     5.57512162    -0.16093286    -0.63212909     0.58088904
O       0.09308302     0.82126198     0.60915599     0.29931020     0.33305054     0.45537339
O       3.39281745     2.65532847     8.84378864     0.95510964     1.51360436    -0.36931005
O       5.48688100     4.86685899     3.91781701     0.57640966    -0.53166422     1.27460738
O       3.82707343    -0.99256755     8.94962261     0.83654035    -0.42159860    -0.51939363
O       5.73682300     1.08117601     4.07609397     0.29050468    -0.85658005    -0.15095158
O       0.09806644     2.52278544     9.03646160    -0.32457284     0.65084595    -0.16875236
O       1.90904799     5.06157701     4.26373700     0.08483641    -1.83131416    -1.68304193
O      -0.22609654    -1.18872753     9.12889860    -0.19238132     0.64845508    -0.20355637
O       1.73443098     1.37059898     4.28621603     0.16881201    -0.65117943    -0.21270384
O       1.84693343     0.55634447     8.10815664     0.15072327     0.71127050     0.41010962
O       3.94045299     2.78182601     3.32366801    -3.07229844     0.34386872    -1.13369005
O       1.90776146    -2.55635957     8.11739862    -0.60950568    -1.41876430     0.29659049
O       3.89206698    -0.88089898     3.31176798    -2.13479597     0.41674101    -0.48921324
O      -1.89723655     1.01671444     8.00098862    -1.27194320    -0.36649058     0.76132964
O      -0.06924099     3.03973700     3.25065499     2.66730660     0.59064792    -0.58034396
O      -1.90093655    -3.09782754     7.96546363    -0.09926827     0.08320864     0.19579729
O       0.01242101    -1.07579301     3.25408400     1.57710267     0.90095422    -0.82953692
O       3.72469144     5.03795644     6.38432063     2.42674330    -1.08814603     0.76846034
O       5.75307499     6.51746401     1.62948101     0.65691607    -0.50033326    -0.04993778
O       3.75582945     0.86806744     6.34882062     0.50016331     1.23028900     1.36102348
O       5.80248199     2.75065102     1.57289502    -0.61983895     0.14708284    -0.54327301
O       0.05931045     4.76669743     6.40160965    -1.13596702    -0.47263579     1.25803944
O       2.01653299     6.76373601     1.67036498    -2.05428930    -0.40034251     0.14747493
O      -0.04675657     0.87062945     6.49126863     0.46368937     0.97481381     0.23979351
O       1.96136801     2.74760502     1.83795700    -0.04588727    -0.08576252    -2.38006182
