# total energy = -19953.37133400 eV

CRYSTAL
PRIMVEC
        5.20749157     0.00000000     0.00000000
        1.62614212     5.29842031     0.00000000
        0.00000000     0.00000000     9.42930110
PRIMCOORD
24 1
Ti      2.85111552     3.13983900     3.49820346     1.64333019    -2.36148817     1.05390175
Ti      3.98251809     2.15858143     5.93109770    -1.64333019     2.36148817    -1.05390175
Ti      5.15361742     2.15858326     1.21640945    -3.25614858    -0.22948390     1.17421451
Ti      1.68001626     3.13983737     8.21289181     3.25614858     0.22948390    -1.17421451
Ti      2.03804458     0.49062893     1.21644725     1.64318184    -2.36025661    -1.04922517
Ti      4.79558905     4.80779166     8.21285401    -1.64318184     2.36025661     1.04922517
Ti      0.86694522     0.49062695     5.93105989     3.25569324     0.22958623     1.16887278
Ti      5.96668841     4.80779364     3.49824126    -3.25569324    -0.22958623    -1.16887278
O       2.22079622     1.86566390     4.81170018     0.29865328     0.98092096    -0.87850900
O       4.61283739     3.43275658     4.61760098    -0.29865328    -0.98092096     0.87850900
O       1.52817111     1.86568528     0.09707996     0.54419681    -0.64624008     0.35822139
O       5.30546256     3.43273525     9.33222094    -0.54419681     0.64624008    -0.35822139
O       3.79976643     0.78354636     0.09704937    -0.29937114    -0.98123180    -0.87855142
O       3.03386718     4.51487412     9.33225153     0.29937114     0.98123180     0.87855142
O       4.49239160     0.78352503     4.81173077    -0.54488510     0.64588064     0.35773494
O       2.34124197     4.51489551     4.61757038     0.54488510    -0.64588064    -0.35773494
O       1.17831203     3.22279963     2.54708947     0.00900735    -0.00147196    -0.17160732
O       5.65532158     2.07562086     6.88221169    -0.00900735     0.00147196     0.17160732
O       3.42997146     2.07557145     2.16759109     1.36132558    -0.38823132    -1.03540960
O       3.40366215     3.22284903     7.26170990    -1.36132558     0.38823132     1.03540960
O       0.36524102     0.57358941     2.16756098     0.00934262    -0.00113386     0.16935143
O       6.46839254     4.72483108     7.26174002    -0.00934262     0.00113386    -0.16935143
O       2.59059119     0.57363881     6.88224175    -1.36173002     0.38861467    -1.03474188
O       4.24304242     4.72478167     2.54705935     1.36173002    -0.38861467     1.03474188
