# total energy = -19960.64218557 eV

CRYSTAL
PRIMVEC
        5.93400000     0.00000000     0.00000000
        0.00000000     9.29699974     0.00000000
        0.00000000     0.00000000     4.64899994
PRIMCOORD
24 1
Ti      4.45098399     6.85126997     2.26786700    -0.72109186     1.89525160     0.20465577
Ti      4.43483699     2.32297203     2.32318899     0.25236698     0.84849804    -0.10616115
Ti      1.42667398     6.98798800     2.36288501     0.49402403     1.57678822    -0.35448224
Ti      1.50403700     2.23308899     2.33324500    -0.38483926     0.87541159    -0.02246425
Ti      2.96512100     4.67147500     4.57971101    -0.46791472    -0.32185724    -0.52487239
Ti      2.97906498     0.09318198     0.03667802     0.21966151    -3.04059801     0.28590472
Ti      0.02944602     4.62160999     0.06247901     0.28778600    -0.36878452    -0.60331858
Ti      5.92149602     0.10210099     4.59871699    -0.28952149    -2.50993421    -0.58480097
O       4.32790900     5.49832800     0.92280501     1.20691844     0.35315812    -0.00475474
O       4.51339002     0.88207699     0.90130401    -0.40365486     1.30225986     1.31804284
O       1.43497302     5.58826501     0.82283400     0.20967380    -0.47187062     0.30705231
O       1.44294200     0.89656501     0.86073902     0.64963676     1.31568797     1.74158879
O       4.47774998     8.34566801     3.84287498     0.08483435     0.29140354    -0.80639081
O       4.45613902     3.76265700     3.72944001    -0.25011752    -0.31456045     0.00270994
O       1.56040602     8.46876702     3.72839801    -0.61572004    -0.70828005    -0.45176742
O       1.42394602     3.72748999     3.65112802     0.30458842     0.26299875     1.12684037
O       2.91312298     6.01829900     3.17947499     0.71776202    -0.08760137     0.29704300
O       2.95944801     1.35975402     3.34717401     0.40225747     1.97892047    -2.19291964
O       0.00248697     6.05612998     3.25921898    -0.38604331     0.04062576    -0.37181534
O       0.00860802     1.51826800     3.29769101     0.09149942    -0.46378245    -0.44088316
O       2.97003499     7.86284002     1.37280199     0.32189504    -0.40280177     0.98328123
O       3.05443098     3.28612098     1.45512599    -0.66012430    -1.25165334     0.19971463
O       0.07010101     7.90885902     1.40749602    -0.65117711    -0.83063684     0.64026817
O       0.04804300     3.21991101     1.48048099    -0.41269975     0.03135770    -0.64247058
