# total energy = -19516.91614072 eV

CRYSTAL
PRIMVEC
        5.93400000     0.00000000     0.00000000
        0.00000000     9.29699974     0.00000000
        0.00000000     0.00000000     4.64899994
PRIMCOORD
23 1
Ti      4.57774602     6.97692502     2.27527802    -1.30339115     2.14366680    -1.64348780
Ti      4.45439602     2.32929098     2.30944901     0.81791193    -1.91047511     0.34021030
Ti      1.49937400     6.88965300     2.32202099     0.56891206     1.93576629    -1.03015734
Ti      1.52186900     2.34888398     2.23820302    -0.75361581    -1.31091214     0.67331843
Ti      2.88657898     4.61789099     0.12474899     0.78671878    -0.08525036    -0.00284056
Ti      2.97514499     0.04009899     0.08325599     0.96977008     0.31168827    -0.12388480
Ti      5.93363402     4.69820898     4.62135202    -0.92994445    -0.57818578     0.42697298
Ti      0.04343402     9.18027102     4.44656800    -0.94318126     1.16896354     0.58703681
O       4.41854500     5.62080602     1.00842499    -0.48042752     0.07801244    -0.21668134
O       4.48080900     0.94468601     0.87657899    -0.44928116     0.12112292     0.35364097
O       1.45402599     5.46408701     1.03658298    -0.52572137     0.84113903     0.58294721
O       1.49608500     0.93281699     0.77902501    -0.66609106     0.84147378     1.22678099
O       4.36807900     8.36247097     3.80800997     0.62599392    -0.54743692    -0.96057452
O       4.31387300     3.82254399     4.06464602     1.48935320    -1.05121032    -2.70287397
O       1.47198198     8.51406697     3.55303798     0.50849832    -1.33215872     0.44892635
O       1.34604002     3.64975502     3.82214599     0.98832239     0.95339574     0.19655165
O       2.97890601     1.33927200     3.17647101    -0.54743872     1.11565093    -0.18883423
O       5.81770399     6.19494799     3.27130899     1.64096889    -1.77959768     1.62396438
O       5.86247201     1.46410502     3.26275701     0.51820526    -0.30009130    -0.45819235
O       2.92545398     7.81991501     1.38458502    -0.43373678    -0.57188709     0.76196599
O       3.03726098     3.23862801     1.43888099    -1.68445912     0.26750050     0.77627958
O       0.12954598     7.87907899     1.34201002    -0.86400900    -0.37670660     0.37127952
O       5.85805502     3.38356701     1.63531302     0.66664282     0.06553204    -1.04234849
