# total energy = -19920.06213724 eV

CRYSTAL
PRIMVEC
        6.26868351     0.00000000     0.00000000
        3.13968550     5.88684656     0.00000000
        0.00000000     0.00000000    11.61020207
PRIMCOORD
24 1
Ti      4.13267101     3.48853983     4.30730218     0.45812216    -2.72088481     0.51642606
Ti      5.27569816     2.39830689     7.30290002    -0.45812216     2.72088481    -0.51642606
Ti      6.68544669     2.39830899     1.49775253    -1.45716477    -1.28697825     0.70404673
Ti      2.72292268     3.48853800    10.11244973     1.45716477     1.28697825    -0.70404673
Ti      2.56282851     0.54511674     1.49779910     0.45812216    -2.72088481    -0.51642606
Ti      6.84554078     5.34173020    10.11240322    -0.45812216     2.72088481     0.51642606
Ti      1.15307987     0.54511448     7.30285345     1.45716477     1.28697825     0.70404673
Ti      8.25528941     5.34173240     4.30734869    -1.45716477    -1.28697825    -0.70404673
O       3.08961461     2.07285879     5.92459727     1.75776798     2.05157268    -1.04337025
O       6.31875464     3.81398797     5.68560493    -1.75776798    -2.05157268     1.04337025
O       2.25584985     2.07288249     0.11953354     0.51559096    -1.32707719     1.75923351
O       7.15251947     3.81396431    11.49066828    -0.51559096     1.32707719    -1.75923351
O       4.74891201     0.87056465     0.11949586    -1.75776798    -2.05157268    -1.04337025
O       4.65945722     5.01628205    11.49070596     1.75776798     2.05157268     1.04337025
O       5.58267684     0.87054100     5.92463489    -0.51559096     1.32707719     1.75923351
O       3.82569234     5.01630577     5.68556725     0.51559096    -1.32707719    -1.75923351
O       2.13749045     3.58071375     3.13620523     0.67965286     3.10582615     2.88772145
O       7.27087880     2.30613301     8.47399691    -0.67965286    -3.10582615    -2.88772145
O       4.59203166     2.30607803     2.66893274     0.74704587     2.00144000     1.76987711
O       4.81633758     3.58076873     8.94126921    -0.74704587    -2.00144000    -1.76987711
O       0.56764782     0.63729044     2.66889568     0.67965286     3.10582615    -2.88772145
O       8.84072141     5.24955626     8.94130627    -0.67965286    -3.10582615     2.88772145
O       3.24649496     0.63734542     8.47403390    -0.74704587    -2.00144000     1.76987711
O       6.16187427     5.24950128     3.13616817     0.74704587     2.00144000    -1.76987711
