# total energy = -4937.20992940 eV

CRYSTAL
PRIMVEC
        5.43089554     0.00000000     0.00000000
       -0.00000709     2.32752681     0.00000000
       -2.71547892    -1.16384761     5.89373340
PRIMCOORD
6 1
Ti     -0.00023206     1.74571738     1.47343330    -0.02918640    -0.02655771    53.78215070
Ti      2.71564131    -0.58203812     4.42030000     0.02918640     0.02655771   -53.78215070
O       0.00005770     0.58186744     0.96004100     0.02815128     0.02430439   -47.15034528
O       2.71535139     0.58181177     4.93369234    -0.02815128    -0.02430439    47.15034528
O      -0.00002271    -0.58190957     3.90690771    -0.00146604     0.00076516    -1.12771120
O       2.71543174     1.74558872     1.98682564     0.00146604    -0.00076516     1.12771120
