# total energy = -4987.32889562 eV

CRYSTAL
PRIMVEC
        3.70258244     0.00000000     0.00000000
        0.00000000     3.86759438     0.00000000
        0.00000000    -0.00006759     5.03592974
PRIMCOORD
6 1
Ti      1.85129105     1.93376334     2.51796481     0.00000000     0.00000000     0.00000000
Ti      0.00000000     0.00000000     0.00000000     0.00000000     0.00000000     0.00000000
O       1.85129105     0.75372400     0.98142851    -0.00000000     0.14035220     0.51619826
O       1.85129105     3.11380268     4.05450106    -0.00000000    -0.14035220    -0.51619826
O       0.00000000     1.18001230     3.49939443    -0.00000000    -0.14006501     0.51558685
O       0.00000000     2.68751438     1.53653520    -0.00000000     0.14006501    -0.51558685
