# total energy = -19518.46646661 eV

CRYSTAL
PRIMVEC
        7.60600008     0.00000000     0.00000000
        0.00000000     7.60600008     0.00000000
       -1.89786986    -1.89786986     4.85670466
PRIMCOORD
23 1
Ti      3.80950199     6.58167602     1.20529199     0.27786925     1.20053541     0.39735309
Ti      3.74046097     2.82462200     1.28171302     0.69852888    -0.90679011     1.34995796
Ti      0.01260902     6.72801999     1.15035800    -0.10042810    -0.27642480     0.44172006
Ti     -0.01431001     2.89873899     1.21322600    -0.25371604     0.01580818    -1.51162127
Ti      5.63537322     2.91412223     3.67364282    -1.38491932    -1.82400888    -1.25036727
Ti      5.74657923    -0.96975075     3.61033883    -0.00620176     1.49246835    -0.13026473
Ti      1.81639721     2.75275121     3.72319180     1.84665131     0.42082469    -0.74803986
Ti      1.89695423    -0.98697177     3.61413880     0.18992309     0.14872783     0.47764430
O       3.97825799     4.71076202     0.89110602    -0.99886572     0.32866887    -0.20937658
O       3.86453198     0.94133002     0.80980899    -0.30322728    -0.59265081    -0.70630698
O      -0.14822900     4.79936201     0.68205301     0.81024284     0.68882373     1.75532852
O      -0.07625402     0.96237799     0.72680199     0.48818171    -0.66057578    -0.35629075
O       5.77422525     4.74378623     3.86881482     0.45601360     1.58607145     0.77723012
O       5.72190825     1.04800723     4.12281181     0.76141217    -1.32529618    -0.81976621
O       1.84231721     4.69646323     3.86934183    -0.34344346     0.70926015     1.46610142
O       2.08944722     0.96738221     4.07596279    -1.36123379    -0.83315678     0.55110254
O       3.73602224     2.83301121     3.32630580     0.77538329     0.47551954    -1.55171841
O       3.83835824    -0.75745479     3.10237682     0.04941842    -0.90027468     0.29123231
O       0.04674424    -0.75018077     3.14243581     0.00514709    -0.24341260     0.93493265
O       5.82954301     6.64392901     1.66701301    -1.62900040    -0.00749914    -0.77975777
O       5.83607999     2.72426100     1.65557198    -1.08051885     0.37993617     0.96388225
O       1.87522399     6.59055800     1.66123201     1.01536321    -0.15948790    -1.10098638
O       1.81539098     2.71974601     1.71779302     0.08741985     0.28293304    -0.24198923
