# total energy = -19959.93008796 eV

CRYSTAL
PRIMVEC
        7.60600008     0.00000000     0.00000000
        0.00000000     7.60600008     0.00000000
       -1.89786986    -1.89786986     4.85670466
PRIMCOORD
24 1
Ti      3.65291701     6.75203903     1.29950502    -0.07865393    -1.56231702     1.56298576
Ti      3.77785798     3.01620301     1.25948498     0.42906303     0.41224878    -1.20540920
Ti      0.04531302     6.57757902     1.19764702    -0.69680341    -1.24017901    -1.39210504
Ti      0.10402498     2.66027500     1.04290602    -1.04559605     2.25168711     1.10424782
Ti      5.77858424     2.81276124     3.55886279     0.46403570    -0.65000880     1.05116738
Ti      5.74802621    -1.11019276     3.52214980    -0.72954102     0.74724976    -0.11622779
Ti      1.95379422     3.00171821     3.65964979    -0.88978072    -1.15815256     0.48661411
Ti      1.76428822    -0.95383977     3.78729681     1.45809860     1.05756069    -0.69918862
O       3.58140702     4.84403399     0.91969000     0.80222742    -0.26882976    -0.91323484
O       3.74786702     0.91493900     0.92381198    -0.26813993     2.06179719    -0.20711863
O       0.25441699     4.59076198     0.71626601    -1.21172846     0.77598776    -0.57536168
O       0.27624598     0.82084001     0.73556400    -0.61581980     1.02159608    -0.04917082
O       5.83459220     4.70713620     4.00510379    -0.63788579    -0.05077134     0.41151576
O       5.64129222     0.82787823     3.85842681    -0.22433115     0.01611002     1.22937857
O       1.69263720     4.84984922     4.21781579     0.09721088    -1.12072731    -0.89930229
O       2.02476720     1.09306720     4.16570279    -0.37102087    -0.57347243    -0.58923484
O       3.81775223     3.04691423     3.09156981    -0.73971822     0.00935548     3.00288017
O       3.59905021    -1.12666578     3.22286583     1.33429094     0.51083339     0.36629183
O      -0.04581177     2.95539022     3.11810281     1.31287415    -0.85593907     0.33123560
O       0.00143920    -0.81447475     3.16160583    -0.52040819    -0.07666595     1.12628193
O       5.76506202     6.49757102     1.63821000    -1.43434134     0.11511862    -0.33020922
O       5.69370702     2.88547300     1.70089401     0.53804467    -0.48121196    -2.55314315
O       1.73935598     6.55013801     1.70377501     2.63257202     0.35514173     0.22266662
O       1.85413802     3.03928799     1.78641101     0.39535122    -1.29641112    -1.36555942
