# total energy = -19074.18765394 eV

CRYSTAL
PRIMVEC
        7.60600008     0.00000000     0.00000000
        0.00000000     7.60600008     0.00000000
       -1.89786986    -1.89786986     4.85670466
PRIMCOORD
22 1
Ti      3.67630098     6.96723499     1.03793699    -0.38631688    -0.52154847     0.78015861
Ti      3.87545901     2.88655601     1.32972099     0.38307034    -0.33554528     2.44036707
Ti     -0.02618898     6.74015402     1.29550100    -0.20685175    -1.00208731     0.03050435
Ti     -0.04358500     2.72025301     1.43615499    -0.68399623     1.87598298    -1.06962328
Ti      5.99153723     2.89309225     3.88909882    -1.17779220    -0.93531137    -0.24233685
Ti      5.68282322    -0.88127078     3.55046883     0.43738003     0.53677635     1.11770678
Ti      1.86515322     2.72899221     3.99524781     3.01586450     0.74450485    -1.98994948
Ti      1.91710525    -0.78540879     3.55582384    -1.27222885    -0.62224242     0.47306696
O       3.70916702     4.79868302     0.92133998    -0.37594016    -0.08987783     0.78462770
O       3.11779202     1.12099300     0.67987402     1.02700208     1.23779328     1.50914401
O      -0.01657600     4.75154402     1.01786101     0.37853980     1.04134447    -0.33588030
O      -0.26656002     1.06686901     0.77290899     0.51191814    -3.47333026     0.05219496
O      -1.46305878     4.75625920     3.92443781    -1.17856122     0.69478124     1.38179260
O       5.47096224     0.98659023     4.30035781     0.64663937    -0.40334813    -1.47531034
O       1.94630720     5.03549222     4.04739182     0.36888042    -1.56014932    -0.60540683
O       2.41348425     0.91185522     4.29960479     0.15712069     0.49131306    -1.01693930
O       3.66036624     3.04872423     3.26063083    -0.55265832    -0.48766209    -0.73789120
O       0.17274822     2.19694121     3.51872782    -0.95985564     1.18969693    -0.95222769
O       5.45205801     6.79549300     1.60056602     0.76947155     0.34703195     0.49484010
O       5.77783498     2.93396802     1.94476698    -0.82112247    -0.45649799    -0.02628208
O       1.88512998     6.60337700     1.65111700     0.45513891     0.68418726    -0.24880420
O      -0.02211278    -0.84921376     3.17307480    -0.53570291     1.04418786    -0.36375158
