# total energy = -4987.44435303 eV

CRYSTAL
PRIMVEC
        3.25778393     0.00000000     0.00000000
        0.76138657     5.04735498     0.00000000
       -0.00000478    -0.00006626     5.11895697
PRIMCOORD
6 1
Ti      2.00958256     2.52364427     2.55947843     0.00000000     0.00000000     0.00000000
Ti      0.00000000     0.00000000     0.00000000     0.00000000     0.00000000     0.00000000
O       1.77727391     0.98364217     0.99760928     0.51127408    -0.56640138    -0.67346396
O       2.24189121     4.06364636     4.12134752    -0.51127408     0.56640138     0.67346396
O       0.23230657     1.53997525     3.55708880    -0.51139544     0.56697551    -0.67335237
O       0.52907475     3.50731339     1.56186800     0.51139544    -0.56697551     0.67335237
