# total energy = -19960.78868411 eV

CRYSTAL
PRIMVEC
        5.93400000     0.00000000     0.00000000
        0.00000000     9.29699974     0.00000000
        0.00000000     0.00000000     4.64899994
PRIMCOORD
24 1
Ti      4.45243399     7.08739601     2.41441602    -0.74121563    -0.89491598    -0.88237234
Ti      4.42783698     2.25767901     2.37234903     0.58268007     0.45664866     0.79652420
Ti      1.47453500     6.91685599     2.36757098     0.83251220     0.61073339     0.40751666
Ti      1.49608299     2.38345402     2.14005598    -1.01739721    -0.08185650     0.82046966
Ti      2.91779599     4.63091701     0.02369502     2.66955761     0.18794231    -0.50418478
Ti      2.96473899     9.26673800     4.61637802    -0.26944374     0.12271391    -0.22062310
Ti      0.06560501     4.71757100     4.63428702    -2.27271874    -0.90141136     0.11754214
Ti      5.93013299     0.03681100     0.04126900     0.04081988     0.20575595    -0.08322613
O       4.34216599     5.57913099     0.91643900     0.64724615    -0.28571112     0.00410040
O       4.43544099     0.93704199     0.78558400     0.55063383     0.10855870     0.50133393
O       1.45597601     5.48235500     0.99437501     0.18148344     0.28729543    -0.03539819
O       1.47409901     0.93152198     0.84192799     0.29139377    -0.06720352    -0.31694617
O       4.54339802     8.42410700     3.81851002    -0.71385729    -1.11760317    -0.86714754
O       4.39578397     3.73379900     3.69563098     0.17925661    -0.19476911     0.26023173
O       1.56678398     8.21146400     3.83726501    -0.59708057     0.93070164     0.13670972
O       1.49202801     3.78748599     3.66860400    -0.44592021    -0.27583062     0.31574264
O       2.98142400     6.07135299     3.29047399    -0.20964012     0.12847704    -0.43772816
O       2.94465200     1.22795703     3.12832900    -0.01355409     0.88954315     0.05064612
O       0.02341599     6.07754399     3.31675500    -0.18155209     0.37617104    -0.54005631
O       5.91226500     1.37275400     3.07421401     0.68835348    -0.51404573     0.85785969
O       2.99903401     7.95776701     1.58238598    -0.20493885    -0.11563207    -0.60269894
O       3.02948901     3.10742999     1.34827802    -0.82892062     0.66201766    -0.18227868
O       5.90167299     7.86436500     1.39018197     0.46118357    -0.10644654     0.77661048
O       5.91574101     3.28466701     1.43464900     0.37111780    -0.41113343    -0.37262678
