# total energy = -19073.89145966 eV

CRYSTAL
PRIMVEC
        7.60600008     0.00000000     0.00000000
        0.00000000     7.60600008     0.00000000
       -1.89786986    -1.89786986     4.85670466
PRIMCOORD
22 1
Ti      3.61008302     6.60396502     1.40040801     0.95857601     0.99840729    -0.38813182
Ti      3.86735498     2.92837800     1.24082598     2.04715629    -0.47077739     0.83746055
Ti     -0.00815901     6.48975502     0.90380701    -1.32118036     1.01812946     5.02250251
Ti      0.28657398     2.78138198     1.02754501    -2.09144125    -0.53627755    -0.08481738
Ti      5.91167020     2.90897820     3.49391983    -1.09955222    -1.08200340    -1.48498232
Ti      5.80754924    -0.93206778     3.53114079     1.02159042     0.60306867    -0.32130471
Ti      1.90864021     2.94413621     3.63898880     0.27456615    -0.30438376     0.61986081
Ti      1.22814922    -1.01718779     4.00966979     1.59801114     0.40024661    -1.56031233
O       3.45720102     4.89031599     0.99513200     0.57705192    -2.47636638    -0.09447111
O       4.09615598     0.95769599     0.81749699    -1.65440060     0.74856102     0.30286321
O       0.16341602     4.69327499     0.73607301     0.25730324    -0.47441370    -0.48626598
O       7.32838401     0.94072300     0.53894099     0.51215057     0.72560261     0.75561973
O      -1.43491375     4.72758621     4.11394983     0.36097813     1.47736954    -3.51563906
O       5.99713122     1.03091920     3.82933883     0.23969221    -1.17043576     0.33639812
O       1.73976223     4.74420020     4.31898681    -0.40161598     0.84486301    -1.23115804
O       1.66492022     1.16283822     4.26011780    -0.29653058    -1.23476170    -1.10752058
O       3.98284723     2.98870622     3.38471882    -1.13569834     0.26813891    -0.77337475
O       0.09180622     3.17549123     2.94294784     1.08513578    -0.70397473     0.43918186
O       5.62638900     6.52244902     1.56688198     0.78705482    -0.32888304     1.25685519
O       5.79480898     3.01444799     1.42706102    -0.85680219    -0.11006511     0.97962024
O       1.81624401     6.47385102     2.10743501    -1.26577384     1.38203737     0.85026465
O       1.99483599     2.41516502     1.74096802     0.40372942     0.42591754    -0.35264878
