# total energy = -4983.11150610 eV

CRYSTAL
PRIMVEC
        4.28556088     0.00000000     0.00000000
        0.00000000     3.23306725     0.00000000
        0.00000000    -0.00008548     5.66831798
PRIMCOORD
6 1
Ti      2.14278038     1.61649072     2.83415904     0.00000000     0.00000000     0.00000000
Ti      0.00000000     0.00000000     0.00000000     0.00000000     0.00000000     0.00000000
O       2.14278038     0.63006047     1.10467171     0.00000000     0.01163347     2.09355186
O       2.14278038     2.60292097     4.56364637     0.00000000    -0.01163347    -2.09355186
O       0.00000000     0.98639627     3.93883193     0.00000000    -0.01206311     2.09537838
O       0.00000000     2.24658517     1.72948616     0.00000000     0.01206311    -2.09537838
