# total energy = -19950.45968292 eV

CRYSTAL
PRIMVEC
        5.38577324     0.00000000     0.00000000
        1.94664315     5.39142442     0.00000000
        0.00000000     0.00000000     9.79501797
PRIMCOORD
24 1
Ti      3.10566277     3.19495303     3.63388182     1.46176731    -2.84900370     1.10512174
Ti      4.22675382     2.19647124     6.16113625    -1.46176731     2.84900370    -1.10512174
Ti      5.43794660     2.19647308     1.26358811    -3.17674723    -0.29934054     0.98311411
Ti      1.89447001     3.19495136     8.53143007     3.17674723     0.29934054    -0.98311411
Ti      2.13234133     0.49924097     1.26362738     1.46176731    -2.84900370    -1.10512174
Ti      5.20007527     4.89218342     8.53139080    -1.46176731     2.84900370     1.10512174
Ti      0.92114846     0.49923898     6.16109698     3.17674723     0.29934054     0.98311411
Ti      6.41126815     4.89218545     3.63392109    -3.17674723    -0.29934054    -0.98311411
O       2.39007743     1.89841213     4.99832270     0.82785104     1.49776045    -0.96668707
O       4.94233916     3.49301215     4.79669538    -0.82785104    -1.49776045     0.96668707
O       1.67374091     1.89843388     0.10084523     0.41232514    -0.66823253     0.64549266
O       5.65867573     3.49299044     9.69417258    -0.41232514     0.66823253    -0.64549266
O       3.96901770     0.79729997     0.10081344    -0.82785104    -1.49776045    -0.96668707
O       3.36339889     4.59412430     9.69420436     0.82785104     1.49776045     0.96668707
O       4.68535427     0.79727821     4.99835448    -0.41232514     0.66823253     0.64549266
O       2.64706226     4.59414607     4.79666359     0.41232514    -0.66823253    -0.64549266
O       1.37973627     3.27936987     2.64587872     0.27761445     0.68657376     0.58153876
O       5.95268031     2.11205441     7.14913935    -0.27761445    -0.68657376    -0.58153876
O       3.65114130     2.11200418     2.25166145     1.43626118     0.25247548    -0.55654248
O       3.68127529     3.27942009     7.54335646    -1.43626118    -0.25247548     0.55654248
O       0.40641482     0.58365769     2.25163015     0.27761445     0.68657376    -0.58153876
O       6.92600177     4.80776658     7.54338776    -0.27761445    -0.68657376     0.58153876
O       2.70795383     0.58370792     7.14917054    -1.43626118    -0.25247548    -0.55654248
O       4.62446276     4.80771636     2.64584748     1.43626118     0.25247548     0.55654248
