# total energy = -4851.99168948 eV

CRYSTAL
PRIMVEC
        5.44800981     0.00000000     0.00000000
       -0.00000674     1.81600327     0.00000000
       -2.72403958    -0.90811980     6.18033116
PRIMCOORD
6 1
Ti     -0.00023316     1.36204576     1.54508241    -0.07768360    -0.05304548   145.77292481
Ti      2.72419650    -0.45416234     4.63524784     0.07768360     0.05304548  -145.77292481
O       0.00005752     0.45398113     1.00672528     0.07680556     0.05189594  -140.90125793
O       2.72390567     0.45390223     5.17360502    -0.07680556    -0.05189594   140.90125793
O      -0.00002499    -0.45405740     4.09689071    -0.00073148    -0.00039209    -0.29339923
O       2.72398808     1.36194072     2.08343959     0.00073148     0.00039209     0.29339923
