# total energy = -19960.43768213 eV

CRYSTAL
PRIMVEC
        5.93400000     0.00000000     0.00000000
        0.00000000     9.29699974     0.00000000
        0.00000000     0.00000000     4.64899994
PRIMCOORD
24 1
Ti      4.45168499     7.08778998     2.43196899     0.61321527    -1.43392353    -1.50213133
Ti      4.47087698     2.21922698     2.25452602    -0.67842953     1.20356186     0.94965890
Ti      1.46773697     6.97010498     2.44814800    -0.73427571    -1.25436739    -1.36286696
Ti      1.49345102     2.37350300     2.22337801     0.76363926     0.74906779     0.53104047
Ti      2.97068498     4.63834602     4.61101899    -0.64412432    -0.57690126    -0.00327147
Ti      2.99123701     9.22005102     0.01704602    -1.69183382     0.85108174     0.95357161
Ti      5.86198702     4.67385402     0.08972200     0.94606861    -0.35738939    -0.59478380
Ti      0.00295302     0.01628998     4.60421700     1.11649862     1.05323712     0.80006101
O       4.48699498     5.55604499     0.83582700    -0.79970131     1.26191410     0.82589238
O       4.44937899     0.86953501     0.92881403    -0.08345907    -0.26517571    -0.76486311
O       1.49406698     5.63590901     0.86488502    -0.04794286    -0.16356876     0.44370212
O       1.57427099     1.01388001     0.75910699    -0.60172475    -0.58069029     0.13241212
O       4.43778901     8.35393201     3.81754898     0.18007448     0.29744024    -0.38557511
O       4.47157602     3.62882500     3.89880600     0.11473449     0.04637629    -1.38796016
O       1.35779500     8.36113401     3.82094698     1.66722269    -0.80906836    -0.35302931
O       1.48832499     3.77045199     3.74116198     0.09771121    -0.39638095    -0.57534728
O       2.98820202     6.05464702     3.18746001    -0.04314313     0.52339221    -0.10812676
O       2.93859202     1.49296000     3.08395098     0.34886335    -1.21831820     1.01285587
O       5.85315902     6.04226199     3.16835703     0.45348132     0.17328907     0.19147269
O       0.17902199     1.24717002     3.13083301    -1.47429141     0.76275635    -0.13260238
O       2.94330000     7.87769598     1.34838200     0.03104120     0.35219550     0.64300074
O       3.02691901     3.22461598     1.29897399    -0.19489715    -0.29146859     1.25028242
O       0.00797200     7.91497499     1.54442000    -0.12391102     0.60664199    -0.75285708
O       5.83750099     3.30067298     1.48468599     0.78518357    -0.53370208     0.18946415
