# total energy = -19959.96454725 eV

CRYSTAL
PRIMVEC
        7.60600008     0.00000000     0.00000000
        0.00000000     7.60600008     0.00000000
       -1.89786986    -1.89786986     4.85670466
PRIMCOORD
24 1
Ti      3.68944300     6.60982301     1.16027399     0.51010680     0.67964360     0.10547723
Ti      4.00239900     2.93030600     1.14795299    -1.10335282    -0.21258480    -0.24211213
Ti     -0.16126698     6.61676899     1.26904198    -0.52672539    -0.48385068    -0.09975833
Ti      0.00869301     2.81793400     1.31341100     0.43473051     0.31836028    -1.12379078
Ti      5.84547024     2.68833023     3.69813484    -2.61995072     1.57593307     0.95379607
Ti      5.59751222    -0.98929380     3.74922484     1.11671819    -1.62756213    -1.06340403
Ti      1.92774425     3.00254923     3.52296780     1.61290015    -2.15956625    -0.22981120
Ti      1.93406723    -0.98613779     3.60175182    -1.24756502     1.76254432     0.40935140
O       3.98838200     4.82330199     0.80761201    -0.83733893     0.73766983    -0.93605956
O       3.60261300     1.06485602     0.76125100     0.75397397    -1.40930470    -0.76884986
O      -0.01420301     4.67969598     0.82880302    -0.00312235     0.77118982    -1.24643811
O       7.20671299     0.96379000     0.83577800     0.93044016    -0.30323859     0.48514138
O       5.77502521     4.70184523     4.12013279    -0.58212368    -0.06813786     0.57860204
O       5.81575122     0.84569324     4.05914379     0.25791928     1.10756429     0.35756011
O       2.03162121     4.79831524     3.98067083    -0.13624538     0.01403360     0.62705501
O       1.81025420     1.07146323     4.08636583     0.60035667    -0.48691827    -1.44082078
O       3.96357020     2.69105121     3.01241579    -0.53454437     0.13100624     1.79333149
O       3.83000121    -1.08441579     3.04118679    -2.51185225     0.54979282     2.48259026
O       0.01889523     2.88492524     3.29639781     0.78829795    -0.26644480    -0.66380200
O      -0.09430679    -1.11910177     3.22065080     0.86558354     0.43893684     0.03708972
O       5.56637898     6.64446502     1.75863201     1.84256608     0.36084032    -1.56154209
O       5.80517000     3.14795798     1.48801198     0.22396194    -1.03168047     0.88541061
O       1.80752999     6.57044799     1.63343999     0.39102894     0.55602183    -0.00717287
O       1.91291199     3.19610798     1.63065001    -0.22576274    -0.95424832     0.66815643
