# total energy = -19074.33547346 eV

CRYSTAL
PRIMVEC
        5.93400000     0.00000000     0.00000000
        0.00000000     9.29699974     0.00000000
        0.00000000     0.00000000     4.64899994
PRIMCOORD
22 1
Ti      4.38252999     7.03334500     2.26543702     0.44007147    -1.35950344     0.56252210
Ti      4.44452099     2.34975099     2.19929002    -0.17994643    -0.12450700     0.47017550
Ti      1.50603501     6.99204599     2.57997601    -0.69723510    -0.25959178     1.33778635
Ti      1.60662600     2.41835099     2.16044899    -0.31275528    -0.18794334     0.02408765
Ti      3.00753699     4.58098098     4.54141202    -0.19538334     0.74141592     0.07574833
Ti      2.98182601     9.22385702     4.52466398    -0.28450707     1.15984178     0.25343939
Ti      5.88756099     4.62645800     4.58299900    -0.45654839    -0.00989052    -0.52075580
Ti      5.88135099     9.21642499     0.21860302     1.03422380    -0.37646903     1.01093885
O       4.39057401     5.55282500     0.91449200     0.53601864     0.16320469     1.27407953
O       4.39460899     0.85121500     0.97862199     0.57327343    -0.03460526    -0.16365875
O       1.61423599     0.87480900     0.93856099    -1.35073803     0.28841335    -0.19838177
O       4.57395499     8.22812700     3.84466899    -0.29179563     1.64824717     0.41216779
O       4.38575802     3.94803800     3.55483300     0.80408684    -2.22695540    -0.70047598
O       1.41724801     8.35853702     3.84780998    -0.37403240     0.19567748     0.01520371
O       1.54447101     3.88896198     3.47223801    -0.52020224    -0.14448294     0.80327849
O       3.00130900     6.23619397     3.61592900    -1.01110392     0.21270230    -2.01865277
O       2.93078898     1.39958101     3.29282602     0.44452025     0.18805133    -0.33301095
O       5.79699099     6.05308002     3.36098601     1.33062403     0.34502237    -0.92003104
O       2.80177800     7.93785799     1.61302598     0.84836306    -0.60122262    -0.84316043
O       3.06115201     3.06749103     1.20339600     0.04628604     1.12712345    -0.20963832
O       0.04439400     7.94168198     1.61259602    -0.33846940    -0.20315785    -0.68137679
O       0.00125902     3.19787898     1.29554000    -0.04474981    -0.54137040     0.34971464
