# total energy = -19074.36198824 eV

CRYSTAL
PRIMVEC
        5.17600016     0.00000000     0.00000000
        0.00000000     5.50899976     0.00000000
        0.00000000     0.00000000     9.26300011
PRIMCOORD
22 1
Ti      1.83941102     3.38830198     3.39073202     1.14772211     1.43938302    -1.41536402
Ti      3.72923501     2.30776501     5.89624199    -2.51171032     0.50806329    -0.02118178
Ti      4.30405200     2.35218198     1.27195901     0.82721213    -0.06443444    -1.40602654
Ti      0.74215897     3.18443602     8.08439198     0.42644024     1.41690822    -0.75309105
Ti      1.76802802     0.61592501     1.20994198     0.56014306    -1.30741596    -0.86811016
Ti      3.21293402     4.96956600     7.99934701    -0.81086787     0.57862595    -0.09904999
Ti      0.68891602     0.10342002     6.05163801     1.36984828     1.16896560    -0.64445496
Ti      4.47243800     5.04734600     3.40081300    -0.68766674    -0.59421944    -0.34464031
O       3.48347102     3.57011199     4.34429699     0.65520475    -1.73345202     2.01223375
O       0.82883302     2.05655499     0.18483098    -0.28749701    -1.54703000     0.83196353
O       4.19455702     3.77860799     8.95226199     1.57342907    -1.72894436     1.31398975
O       3.32830598     0.81554999     0.23067498     1.36066121     0.58248389    -1.71719210
O       1.68495598     4.62156999     8.95480601    -1.79270954     0.83604413     1.10788542
O       4.34051199     0.62226598     4.93779700    -0.47642791     0.81179013    -0.03037400
O       1.12738700     4.87567403     4.30840803    -0.72935976    -0.40366926     1.61239184
O       0.14720499     3.48421202     2.49696699    -0.42990275    -0.49312723    -0.57303689
O       0.12437502     1.89113302     6.77613199    -0.29381627    -0.57267899     0.00489718
O       2.69453500     2.02614402     2.08630200    -1.13507896     0.99473113     2.30595180
O       2.37246301     3.37965898     6.98948901     0.43698743     0.04423019    -0.88485165
O       0.00170199     0.79732099     2.21389002     0.26274679     0.12391205    -0.17119542
O       2.41041899     0.73487501     6.72952698     0.32783814    -0.15448222    -0.80910307
O       2.70365500     4.75864002     2.28954797     0.20680342     0.09431658     0.54835840
