# total energy = -19518.15705385 eV

CRYSTAL
PRIMVEC
        5.17600016     0.00000000     0.00000000
        0.00000000     5.50899976     0.00000000
        0.00000000     0.00000000     9.26300011
PRIMCOORD
23 1
Ti      1.89383103     3.20430599     3.41040302    -0.63958915     0.68162387    -0.14141793
Ti      3.28554899     2.23528598     5.84843500     0.09351774     0.23539975    -0.13381568
Ti      4.46351998     2.26328300     1.24444598     1.32456651    -1.34772393     0.15228830
Ti      0.69694798     3.32892501     8.04064601     0.16768870    -0.90089483     1.12326885
Ti      1.87736398     0.53382798     1.24861399    -0.52004180     0.00449558    -1.00624788
Ti      3.33662999     5.01976899     8.03446501    -1.31371799     0.61545265     1.27312925
Ti      0.73994701     0.52769201     5.83569601     0.09254664    -0.18563603    -1.12368408
Ti      4.46015997     4.95881603     3.49439101     0.28160686    -0.23384372    -1.23970490
O       1.54752600     1.96247002     4.68425098     0.54684711    -0.72442118     0.87349174
O       3.48328898     3.54547800     4.41957801     0.19381137    -0.23126902     1.48055205
O       0.95965998     1.97864999     0.11783301    -1.13575413     0.83437702    -0.15119661
O       3.51784801     0.85243099     0.16520300     0.26595270    -0.84649232    -1.53654144
O       1.67051801     4.63325602     9.01684902     0.90735293     1.67057027     1.74416993
O       4.25820699     0.77620698     4.65222502    -0.44953621     1.40490734     1.61830512
O       0.92312802     4.65146898     4.51196600     0.16186437     0.89036333     0.86373312
O       0.12403401     3.32869699     2.60022201     0.03707738    -0.08724785    -1.36971818
O       5.03835798     2.25893602     6.76084501    -1.52057951    -1.45841407    -1.29374694
O       2.82393201     2.10020502     2.17633002    -0.82430086     0.25239269    -0.08358659
O       2.29113201     3.22311999     7.18563702     3.11683305     0.31191015    -1.78322731
O       0.14874702     0.61592099     2.05459402     0.02018857    -0.31139979     0.47472404
O       5.04879399     4.89764001     7.08747898    -0.82794360     0.28143331     0.60687133
O       2.50548801     0.63044299     6.72527800    -0.48071651    -0.33821769    -0.52278209
O       2.68722701     4.93235600     2.47235300     0.50232587    -0.51736554     0.17513667
