# total energy = -19074.79807127 eV

CRYSTAL
PRIMVEC
        5.17600016     0.00000000     0.00000000
        0.00000000     5.50899976     0.00000000
        0.00000000     0.00000000     9.26300011
PRIMCOORD
22 1
Ti      1.90346401     3.45262501     3.39851098    -0.52070438     0.69026612    -0.67991151
Ti      3.64071202     2.22570401     5.89830901    -1.13532630     0.32341353     0.09866021
Ti      4.34691699     2.26146300     1.32128998     0.59861526     0.43975702    -2.21994426
Ti      0.69451498     3.25380201     7.99732200     0.08107591    -0.77438956     2.12997670
Ti      1.80267601     0.51566900     1.21412200    -0.06713307     1.27053270    -1.30125790
Ti      3.18030003     5.05165901     8.03706099     0.48547999    -0.76922781     0.77277722
Ti      0.68895200     0.09960100     6.07249098     1.15185747     1.21980584    -1.56188353
Ti      4.42013698     4.98350998     3.35222601     0.53546508     0.22601779     0.35678415
O       3.53526599     3.45457302     4.37403098     0.54875307    -0.96270983     1.76481152
O       0.86657500     1.98763002     0.15982100    -0.06552767    -0.37078844    -0.46904961
O       4.30479798     3.68348801     9.03329400    -0.78724585     0.26919871    -0.27088125
O       3.43594302     0.85379299     0.13106498     0.21931801     0.42639139     0.08165981
O       1.70946202     4.66354602     9.09991900    -1.15156231     0.05682680     0.08844830
O       4.38011302     0.63847198     4.87255500    -1.07815086     0.71953223     0.34106879
O       1.15476202     5.04371902     4.26084002    -0.34534556    -1.42962490     1.69220740
O       0.13303802     3.53290199     2.40787100     0.05741044    -0.00774391     0.51095578
O       0.03495200     1.84332000     6.82930399    -0.27156876    -0.45355691    -0.19588625
O       2.53029298     2.16388399     2.15631998     1.31558795    -0.68089805     0.18054062
O       2.24752701     3.47429498     6.94441898     0.83776882     0.52661637    -0.96115199
O       0.15620201     0.87564198     2.14894801    -0.93644291    -1.27781638     1.02758264
O       2.46907898     0.80814399     6.72775402    -0.27729435    -0.52000864    -0.54187999
O       2.72222600     4.76262700     2.38987702     0.80497002     1.07840566    -0.84362657
