# total energy = -39033.91603280 eV

CRYSTAL
PRIMVEC
        7.60600008     0.00000000     0.00000000
        0.00000000     7.60600008     0.00000000
       -3.79573973    -3.79573973     9.71340985
PRIMCOORD
46 1
Ti      1.91516147     4.74005447     6.26340162    -0.66460522     1.54137280    -0.06858086
Ti      3.98929700     6.77253200     1.31476802    -0.37928388    -0.18193878    -2.46743900
Ti      1.56320044     0.87827247     6.07128663     0.83123822    -1.63116887    -1.44092157
Ti      3.83785801     2.89525902     1.12128997    -0.29925621    -1.66809327     1.67948403
Ti     -2.07085754     4.70549443     6.15371662     1.34714286     0.38511154     0.44895669
Ti      0.20773901     6.61718799     1.24216501     0.21202533    -2.12674610     1.37013855
Ti     -2.17537555     0.93500746     5.85484562    -0.29477066    -0.06073951     3.99458151
Ti     -0.10488002     2.86541400     1.14107602     1.63204125     1.12944541    -1.37965061
Ti      3.49240046     1.00522447     8.31628862     2.57950391    -0.91684827     0.71842871
Ti      5.89167201     2.85150601     3.61242998    -2.01651439     0.09191594     0.14836171
Ti      3.91327047    -2.92777056     8.71448561    -0.49018280     0.85504998    -1.32310972
Ti      5.81955399    -1.00225197     3.55206699     1.56033238    -0.24248571     1.17321769
Ti     -0.18625256     0.98542747     8.32073360    -3.63354476     1.26114765     0.47161711
Ti      1.94854002     2.89443599     3.39741801     1.27043602     0.70229246     1.81648043
Ti      0.02662344    -2.89225853     8.57200765     0.97176654    -1.10745553     0.70342426
Ti      2.09423998    -1.01399902     3.75597301    -0.88866023    -0.37290857     0.60249094
O       2.03048946    -1.03715153     5.87270064    -0.24808712     1.83015073    -0.94445524
O       3.81437100     0.92597901     0.83255399     0.16571049     1.30337058    -0.35572151
O      -1.80951557     2.90522644     5.75109560    -0.31203485    -0.38343313    -0.76298800
O       0.00361597     4.76957399     0.73322202     0.25828232    -1.08111688    -0.29667482
O      -2.02899956    -1.05654858     5.61484564    -0.53726743     0.35684045    -1.11969296
O       0.27989301     0.81305100     0.93820899    -0.11657695     0.99801134    -1.14677208
O       3.67468943     2.76290544     8.66489561     0.56422443     1.29426759     1.57071424
O       5.80854001     4.63739398     3.95973700    -0.36336772     2.32755473     0.40346897
O       3.75561545    -1.06162757     8.85182462    -0.28112632     0.99024661     0.88293232
O      -1.57917599     1.02266599     4.17565100    -0.04145725    -1.22156910    -2.24492665
O       0.01642444     2.78691844     8.88347360    -0.70662734     0.61950111     0.87134127
O       1.99926700     4.68775202     4.19703997     0.20972599    -0.66267406     0.08220463
O      -0.35672357    -0.65410055     9.07084664     0.90823199    -1.16809939     0.28646882
O       1.61858001     1.25699198     4.14495798     0.84315606    -1.19517003     1.53845871
O       1.58687446     0.97730344     8.06771962     3.09409729    -0.37168987    -0.63112584
O       3.89946699     2.77775002     3.08858498     0.02522356     0.50000956     0.95384852
O       1.95971947    -2.78829155     8.31081063    -0.17013536    -0.23835292    -0.20479204
O       4.04629098    -0.46920998     3.07397001    -0.11235931    -0.61355517     3.02818678
O      -2.07829756     0.92379647     7.91630264    -1.51217740     0.35010519    -0.13791351
O       0.02138802     2.90107499     3.08752203     0.12676932     0.54355995    -0.07309238
O      -1.74977453    -2.59386754     8.21739465    -3.06592699    -1.23376925    -1.04113853
O       0.28562501    -0.89496298     3.31296302    -1.91012056    -0.29972980    -0.56088456
O       3.73178443     4.56595944     6.61508764     1.95459346    -0.28447956    -0.03552057
O       5.92990100     6.57910501     1.42669600    -0.92278546     0.01231379     1.65993978
O       3.52231443     1.23106843     6.40424564     0.03659838    -0.39336479    -0.65045463
O       5.74192200     2.74937501     1.50800599    -0.46054131     0.17234934    -0.04760219
O       0.10402646     4.79705744     6.69879263    -0.65620156    -0.56376111    -1.70188735
O       2.14040000     6.33764498     1.88207800     0.16748789    -0.23320609    -1.87821392
O      -0.26056354     0.70726344     6.45332265     1.34746579     0.40662552    -1.28711812
O       1.94146100     2.75319800     1.64841899    -0.02244240     0.58111324    -2.60406978
