# total energy = -4902.49412183 eV

CRYSTAL
PRIMVEC
        5.98995843     0.00000000     0.00000000
       -0.00000741     1.99665281     0.00000000
       -2.99501734    -0.99845633     6.79512850
PRIMCOORD
6 1
Ti     -0.00025635     1.49753722     1.69878171    -0.04883812    -0.03213520    93.05704492
Ti      2.99518987    -0.49934079     5.09634579     0.04883812     0.03213520   -93.05704492
O       0.00006324     0.49914156     1.10687073     0.04810382     0.03334156   -89.77869306
O       2.99487011     0.49905481     5.68825683    -0.04810382    -0.03334156    89.77869306
O      -0.00002748    -0.49922541     4.50443481    -0.00108038     0.00003420    -0.62253141
O       2.99496072     1.49742173     2.29069275     0.00108038    -0.00003420     0.62253141
