# total energy = -19955.36434999 eV

CRYSTAL
PRIMVEC
        5.13564057     0.00000000     0.00000000
        0.00002556     4.94531498     0.00000000
        0.00000000     0.00000000     8.77590834
PRIMCOORD
24 1
Ti      1.86143787     2.93058903     3.25579948    -0.35416728     1.10664641    -1.63350112
Ti      3.27422826     2.01472585     5.52010916     0.35416728    -1.10664641     1.63350112
Ti      4.42916866     2.01472755     1.13211979    -0.35240427    -1.10649651     1.63115010
Ti      0.70649753     2.93058758     7.64378901     0.35240427     1.10649651    -1.63115010
Ti      1.86142514     0.45793164     1.13215499    -0.35411020     1.10519939     1.63025613
Ti      3.27424104     4.48738339     7.64375380     0.35411020    -1.10519939    -1.63025613
Ti      0.70648475     0.45792984     5.52007401     0.35281025     1.10492428     1.63399863
Ti      4.42918138     4.48738524     3.25583469    -0.35281025    -1.10492428    -1.63399863
O       1.62547168     1.74132941     4.47827897    -0.44186430    -1.28942157     0.69711066
O       3.51019450     3.20398547     4.29762968     0.44186430     1.28942157    -0.69711066
O       0.94239670     1.74134941     0.09035290     0.44229984    -1.28989671     0.69708366
O       4.19326953     3.20396552     8.68555554    -0.44229984     1.28989671    -0.69708366
O       3.51018172     0.73132793     0.09032445     0.44193834     1.28984889     0.69697028
O       1.62548446     4.21398695     8.68558400    -0.44193834    -1.28984889    -0.69697028
O       4.19325675     0.73130798     4.47830747    -0.44247493     1.28997076     0.69722430
O       0.94240933     4.21400695     4.29760122     0.44247493    -1.28997076    -0.69722430
O       0.18660533     3.00802092     2.37059184     0.54400964    -0.12936253     0.21070738
O       4.94906085     1.93729401     6.40531680    -0.54400964     0.12936253    -0.21070738
O       2.75443017     1.93724798     2.01739038     0.54381963     0.12922755    -0.21000573
O       2.38123596     3.00806695     6.75851816    -0.54381963    -0.12922755     0.21000573
O       0.18659255     0.53536338     2.01736233     0.54353064    -0.12942810    -0.20982961
O       4.94907358     4.40995155     6.75854616    -0.54353064     0.12942810     0.20982961
O       2.38122323     0.53540941     6.40534481    -0.54379058    -0.12920158    -0.21063642
O       2.75444295     4.40990547     2.37056384     0.54379058     0.12920158     0.21063642
