# total energy = -19904.09379925 eV

CRYSTAL
PRIMVEC
        7.69246200     0.00000000     0.00000000
        0.00002422     3.10545399     0.00000000
        0.00000000     0.00000000    11.90601324
PRIMCOORD
24 1
Ti      2.78816195     1.84028912     4.41704601    -0.41254420     0.29894587     1.26823130
Ti      4.90432449     1.26516476     7.48896734     0.41254420    -0.29894587    -1.26823130
Ti      6.63426166     1.26516582     1.53591309    -0.41070329    -0.29939530    -1.26610474
Ti      1.05822478     1.84028822    10.37010037     0.41070329     0.29939530     1.26610474
Ti      2.78814995     0.28756218     1.53596082    -0.41208011     0.29915979    -1.26617570
Ti      4.90433649     2.81789181    10.37005263     0.41208011    -0.29915979     1.26617570
Ti      1.05821278     0.28756106     7.48891961     0.41088738     0.29939967    -1.26775822
Ti      6.63427366     2.81789293     4.41709374    -0.41088738    -0.29939967     1.26775822
O       2.43472142     1.09348312     6.07554741     4.80443920    -0.24286778     0.44985040
O       5.25776507     2.01197076     5.83046594    -4.80443920     0.24286778    -0.44985040
O       1.41157178     1.09349563     0.12257908    -4.80698948    -0.24251194     0.44874740
O       6.28091476     2.01195825    11.78343394     4.80698948     0.24251194    -0.44874740
O       5.25775306     0.45924377     0.12254046    -4.80276541     0.24271326     0.44919220
O       2.43473337     2.64621011    11.78347256     4.80276541    -0.24271326    -0.44919220
O       6.28090276     0.45923126     6.07558608     4.80594201     0.24277265     0.45115112
O       1.41158362     2.64622268     5.83042727    -4.80594201    -0.24277265    -0.45115112
O       0.27949969     1.88891315     3.21611119     0.00535021    -0.07700123     1.28686743
O       7.41298675     1.21654074     8.68990216    -0.00535021     0.07700123    -1.28686743
O       4.12574082     1.21651187     2.73693329     0.00658023     0.07722568    -1.29110719
O       3.56674567     1.88894207     9.16907984    -0.00658023    -0.07722568     1.29110719
O       0.27948769     0.33618615     2.73689527     0.00486633    -0.07727556    -1.29021424
O       7.41299875     2.76926773     9.16911787    -0.00486633     0.07727556     1.29021424
O       3.56673367     0.33621502     8.68994007    -0.00673501    -0.07734113    -1.28878188
O       4.12575282     2.76923886     3.21607322     0.00673501     0.07734113     1.28878188
