# total energy = -19074.02233206 eV

CRYSTAL
PRIMVEC
        5.17600016     0.00000000     0.00000000
        0.00000000     5.50899976     0.00000000
        0.00000000     0.00000000     9.26300011
PRIMCOORD
22 1
Ti      1.78519998     3.35351398     3.19365101     0.84377595     1.16473305     0.28697713
Ti      3.53787901     2.26538500     6.00256899     0.53824676    -0.38427799    -0.31518523
Ti      4.45861599     2.14352098     1.26846703    -0.38620118    -0.37946051    -1.60572265
Ti      0.74630598     3.29701700     8.13076701     0.22504257     0.53840514     1.25655489
Ti      1.81057700     0.50292598     1.33977202    -0.01925268     0.38146058    -2.35771122
Ti      3.23288802     5.00592000     8.02366699     0.51506723     1.31040178     1.34994330
Ti      0.54974902     0.36712000     5.97121799     1.56822927     0.47275740    -0.83799277
Ti      4.39754502     4.92384101     3.41109899    -0.47644590    -0.24457165     1.02839485
O       3.37376702     3.39870301     4.50493599    -0.59859340     0.33284511     0.32770522
O       0.90196998     2.05181700     0.29599699    -0.09701599    -0.50334454    -0.90960804
O       4.41656402     3.90488899     9.06327401    -0.32630165    -1.09680216    -0.11973246
O       3.43060002     0.83586198     0.13622901     0.42907228     1.36207146    -0.14287034
O       1.56345598     4.80732602     9.19733799    -0.03767747    -0.13329118    -1.53784319
O       4.61502100     0.96413301     4.62223199    -2.21583898     0.59160926     0.52758902
O       0.87840402     4.76464401     4.31535401     1.38547982    -1.80134460     1.14125064
O       0.11118400     3.52258500     2.31082402    -0.08320041    -0.74749941     1.00760028
O       0.30271098     2.31399199     6.52162102    -1.20752625    -0.60220889     0.46120928
O       2.72889601     2.01428299     2.22610999    -0.14128114    -0.36121673     0.91791142
O       2.62448802     3.39396100     7.43756302    -0.81591829    -1.77676587    -2.03379169
O       0.02009201     0.52830802     2.13467102     0.48064709     1.55726326    -0.76240770
O       2.46445402     0.60485499     6.47609399    -0.14747493     0.63001075     0.07778104
O       2.72407399     4.63516498     2.14455198     0.56716706    -0.31077373     2.23994873
