# total energy = -19517.11838751 eV

CRYSTAL
PRIMVEC
        5.17600016     0.00000000     0.00000000
        0.00000000     5.50899976     0.00000000
        0.00000000     0.00000000     9.26300011
PRIMCOORD
23 1
Ti      1.77053500     3.28283801     3.49165898     0.24285158    -0.90576270     2.63540074
Ti      3.56470502     2.13064700     5.86431699    -1.99874934     0.95443139    -3.03550774
Ti      4.29014099     2.09533299     1.42365302     0.25397675     1.74037729    -1.97457248
Ti      0.83326102     3.30210001     7.86185400    -0.03364418     2.00701647     2.05310737
Ti      1.89607601     0.34280700     1.28654102     0.43061237     0.18131966    -1.48757759
Ti      3.36443201     5.03048001     7.94498002    -1.50482019    -0.23572988     1.80396867
Ti      0.82642998     0.50772499     5.97923100     0.54161080    -1.16270496    -3.74066055
Ti      4.42102901     4.94492200     3.32458502     0.34643931    -0.19041083     2.82300238
O       1.70114801     1.79117403     4.70375698     0.60999651     1.44403800    -0.44312697
O       3.53480502     3.64825798     4.39080600    -0.22808033    -1.16229821     1.07140325
O       4.56824998     3.28647299     9.24360502     0.81965771    -0.58907363    -0.53821540
O       3.41345902     0.90199802     0.16768902     0.16508982    -1.27955830    -1.42392014
O       1.73162799     4.66271299     9.06404401     0.15827408    -0.13765229     0.56196083
O       4.42987902     0.81953998     4.72567799    -0.38613921     0.18110472    -0.09376457
O       1.03682201     4.61305600     4.65918698    -0.58189768    -0.70687237    -0.69297144
O       0.03178000     3.44475900     2.47592701     1.61173030     0.06238141     0.26281235
O       0.04041501     2.04185598     6.74365998    -0.17136666     0.50939100     1.14101127
O       2.61558598     2.03026901     2.05557299    -1.38439790     1.25282730     1.23908938
O       2.69653100     3.40631200     7.10550001    -0.68950867    -0.86172251     0.10655401
O       0.21447898     0.74982099     2.11394601     0.16411332    -0.60761464    -0.48592531
O       5.05321701     4.82405300     7.28374199     1.26226531     0.20935807    -1.06824568
O       2.63042401     0.60201897     6.59083401     0.11006794     0.03821612     1.36486599
O       2.69321200     4.86660499     2.51067998     0.26191812    -0.74106137    -0.07868787
