# total energy = -4954.31088229 eV

CRYSTAL
PRIMVEC
        5.23693520     0.00000000     0.00000000
       -0.00000724     2.52148716     0.00000000
       -2.61849694    -1.26081402     5.64186482
PRIMCOORD
6 1
Ti     -0.00022373     1.89119897     1.41046591    -0.01929022    -0.02058966    36.17753472
Ti      2.61865470    -0.63052600     4.23139821     0.01929022     0.02058966   -36.17753472
O       0.00005573     0.63035970     0.91901354     0.01797279     0.01956790   -28.78945547
O       2.61837508     0.63031317     4.72285063    -0.01797279    -0.01956790    28.78945547
O      -0.00002139    -0.63038837     3.73994585    -0.00153418    -0.00005656    -1.53375874
O       2.61845214     1.89106123     1.90191833     0.00153418     0.00005656     1.53375874
