# total energy = -19515.91345016 eV

CRYSTAL
PRIMVEC
        5.93400000     0.00000000     0.00000000
        0.00000000     9.29699974     0.00000000
        0.00000000     0.00000000     4.64899994
PRIMCOORD
23 1
Ti      4.58410599     7.14554401     2.24531098     0.90128101     0.77044472    -0.41469415
Ti      4.45108601     2.28502801     2.44123298    -0.63046301    -0.61627309     0.39036251
Ti      1.34946602     7.02720400     2.08432298     0.56541408    -0.13376838     2.42033380
Ti      1.45282598     2.27854998     2.29823098     0.55388679    -0.02952065     0.64015016
Ti      3.01325703     4.40875400     0.20063602    -0.89419350    -1.95200256    -0.73292691
Ti      2.91123800     9.18732400     0.00888700    -0.64085824     0.93657532    -1.41174673
Ti      0.04259602     4.71131401     0.05939200    -0.26365207    -1.23752409    -1.33302801
Ti      5.86344602     0.17652999     4.56124701     0.50617044    -0.10619791     0.46970704
O       4.28056701     5.45813598     0.94112502     1.15585245     1.84811838    -0.04179047
O       4.34014601     0.85311802     0.78206100     1.61876381     1.03736595     1.31668890
O       1.45159802     5.51620499     0.85512302     1.01969346     1.01792403     0.76876244
O       1.61413502     0.99744498     0.79070702    -0.79509955     0.02681173     0.90194127
O       4.58670901     8.37319697     3.72756302    -0.51646694    -1.03413998    -1.11483152
O       4.22821000     3.24970501     4.02281800     0.22253986     2.55900938    -0.69364301
O       1.49392998     8.34563398     3.61932601     0.06784501    -0.73964495     0.12763809
O       1.53291198     3.83019700     3.62380602     0.00243021     0.59246466     0.95625738
O       3.01205002     1.17144000     3.10930899    -0.32293659     1.05994641    -0.69066978
O       5.88044102     5.99572101     3.22014998    -0.10652110     0.51350323    -0.49034838
O       0.11980800     1.74184899     3.61549900    -0.01682299    -0.63142795    -2.94938809
O       3.09136099     7.96742502     1.41132901    -0.68327555    -2.17506949     0.82049383
O       2.98850899     3.26212501     1.61366898    -0.26954684    -0.07538580    -0.04151485
O       0.20964002     8.12957599     1.32557001    -1.93444500    -0.52534265     0.31009727
O       5.86546499     3.32302299     1.42060199     0.46040350    -1.10586608     0.79214895
