# total energy = -39031.80799044 eV

CRYSTAL
PRIMVEC
        5.93200024     0.00000000     0.00000000
        0.00000000     9.29399984     0.00000000
        0.00000000     0.00000000     9.29399984
PRIMCOORD
46 1
Ti      4.44862502     6.89380799     6.99086101     0.11325791     1.89013048    -0.83886103
Ti      4.43772498     6.94467299     2.47249698    -0.33700619     0.43168092    -0.83113640
Ti      4.44856999     2.12691402     7.04602398     1.33129586     0.08658296    -0.25360188
Ti      4.55711900     2.03617399     2.40895100    -1.02374630     2.29321918     1.17864658
Ti      1.48526899     6.97391903     7.05929701     0.31784812     1.77272281    -1.42407903
Ti      1.50083299     6.94231899     2.37808002    -0.54712247     1.83130953    -0.51171014
Ti      1.53117400     2.43908198     6.79529699    -1.69876423    -0.91017368     0.31495511
Ti      1.61593201     2.75936201     2.13488201     0.25050704    -2.18369529     0.31168904
Ti      2.88691400     4.62917199     4.68079201     2.60392297    -0.22449390    -0.07965641
Ti      2.88284500     4.93692402     9.16047799     0.79499825    -0.98490360     0.57402830
Ti      2.96602600     0.09919099     4.79875002    -1.04266139     0.13988118     0.37314383
Ti      3.01818202     9.24543698     9.28196201    -0.03614021    -0.97040720    -0.25583617
Ti      0.06939498     4.72295299     4.63465501    -2.96415909    -0.84469101     0.81922139
Ti      5.82516899     4.69816300     9.09006699    -0.24820668    -1.45388533     0.24082144
Ti      0.00307902     8.94333403     4.61292302     1.13294109     0.43332360     1.16624254
Ti      0.08149901     0.15579597     0.10968500     0.67355240    -1.37129787    -2.10812797
O       4.18191799     5.41945498     5.82464600     0.54136011     0.48307010    -1.14581898
O       4.49078801     5.66993098     0.57135299     0.57866606    -0.23790761     1.98159082
O       4.67668798     0.67462400     5.70123599    -1.48028980     0.89973115    -1.39522945
O       4.52037701     0.72555001     1.14476401    -0.33370720     0.54002494    -0.48756336
O       1.43631602     5.49718900     5.59412099     0.23928983     0.45570326     0.67867944
O       1.54643299     5.58377298     0.96567101    -1.12449938    -0.86630679    -0.74109274
O       1.28487999     0.95412801     5.52597799     0.67831177    -1.67478997    -1.31586949
O       1.67169602     1.10659398     0.82732201    -0.57199919    -0.26601672     0.03698379
O       4.63661900     8.39836703     8.25993500    -0.89041912     0.73451122     1.52330360
O       4.27148198     8.30251302     3.81616301     0.86933941     0.79074461    -0.69334733
O       4.32550199     3.74915001     8.13512399     0.83595311     0.11644839     1.54388811
O       4.32425598     3.84979201     3.80571398     1.32963287    -0.65614114    -1.08830903
O       1.27936998     8.12253100     8.45567200     0.80322810     2.16414770     1.15516083
O       1.74341901     8.10630198     3.95136600    -1.50071208     2.05078849    -0.59935291
O       1.64240600     3.84433799     8.41238202    -1.29506026    -1.29833919    -0.72691258
O       1.36949898     3.98424701     3.61644501     0.00623981    -1.19869168    -0.51042227
O       2.98002999     6.28544402     7.96085301    -0.84625861    -0.56146872     0.16161061
O       2.81927599     5.93887002     3.00036600     2.56538521    -0.98398854     1.68956533
O       2.85157401     1.33645000     7.77138702     1.15465663     0.04422402     0.14962103
O       2.68641303     1.57034698     3.26985603     1.47202215     0.28358918    -0.67798910
O       0.06870800     5.91966401     7.70970401    -0.61583754    -0.27703621     0.57701258
O       5.92184200     6.28533999     3.49823702    -0.58198561    -1.21669532    -0.10257703
O       0.12633001     1.35936301     7.87264398    -1.28866618     0.54656943     1.04461158
O       2.95147399     7.97573501     6.14143902    -0.15073664    -0.40118326     0.44661107
O       3.04602500     7.97092199     1.40847002    -0.78190721    -0.71210585     0.23143074
O       2.86381599     2.99911101     5.71985800     0.95555959     0.22786102     0.93494293
O       5.85625699     7.72061802     5.91443801     0.64582176    -0.62113890     0.69570658
O       5.85205601     7.69150100     1.55927400     0.38083066     1.85590908    -1.07677840
O       5.89371601     3.18786297     6.05849800    -0.10351548     0.42399332    -0.19858694
O       5.85001799     3.26160499     1.55494300    -0.81122063    -0.58080831    -0.76660863
