# total energy = -19517.51474150 eV

CRYSTAL
PRIMVEC
        5.17600016     0.00000000     0.00000000
        0.00000000     5.50899976     0.00000000
        0.00000000     0.00000000     9.26300011
PRIMCOORD
23 1
Ti      1.93377301     3.19424099     3.44123198     0.43416847    -0.34335784     2.38587638
Ti      3.35072701     2.32731001     5.89182399     1.32630354     0.06845282    -2.26856255
Ti      4.29743400     2.08541399     1.54266202     0.96901083    -0.40269353    -1.41580908
Ti      0.69471998     3.44170401     7.84215400    -0.47977188     0.08373289    -0.09260037
Ti      1.97719301     0.11261601     1.38607598     1.54397347     0.84295808    -0.63830874
Ti      3.13973399     5.19190702     7.91531599    -0.18705605     0.86530920     1.23331879
Ti      0.83209799     0.60634002     5.85215200    -1.78833584    -0.98522884    -2.40930556
Ti      4.66021602     4.87057699     3.28836702    -0.69908475     1.17175088     3.61853362
O       1.81598302     1.77773202     4.81282698     0.02455919     0.85554904    -1.28585673
O       3.57820999     3.54623202     4.46048198     0.25833991     0.00336249     0.08887510
O       4.79607000     2.84625302     9.16408698    -0.00791334     0.12297180     0.34967350
O       3.53950703     0.68693901     0.21825402    -0.80265191    -0.01375181     0.80418197
O       1.55417099     4.75325898     9.10289599     0.42053493    -0.89274134    -0.58212805
O       4.29228003     0.77056701     4.78448700     0.67640684    -0.59744849    -0.33176936
O       1.02062803     4.65331703     4.49644799    -0.01056852    -0.11719632    -0.10931332
O       0.33115600     3.39125500     2.45362700    -0.19390136    -1.03369904    -0.96151452
O       0.03208201     2.22391100     6.46519802    -0.91556838     0.98255104     1.81310226
O       2.72247899     1.72867798     2.43325701    -0.48640045     0.01377109    -0.97348481
O       2.45642598     3.75570901     6.87794098    -0.40822011    -0.72611888     0.68518408
O       0.29291898     0.63088099     2.00176699    -0.62689663     0.38986012     0.31049836
O       4.85695602     4.86341902     7.30273299     0.76450984     0.68217974    -0.90318517
O       2.36470099     1.07926600     6.99911098    -0.00122487    -0.75546469     1.34493993
O       2.97956002     4.40328601     2.31248998     0.18978708    -0.21474864    -0.66234599
