# total energy = -39036.35253998 eV

CRYSTAL
PRIMVEC
        5.93200024     0.00000000     0.00000000
        0.00000000     9.29399984     0.00000000
        0.00000000     0.00000000     9.29399984
PRIMCOORD
46 1
Ti      4.36903200     7.04351499     6.88633998    -0.98971902    -0.09855042     0.55008438
Ti      4.47400299     6.88148398     2.43579500    -0.94646713     0.37122912     0.01987515
Ti      4.43333302     2.27594801     7.05784701    -0.84854046    -0.32042076    -0.31801910
Ti      4.44463201     2.53812100     2.11925900     0.75462266    -0.68459684     0.16876907
Ti      1.32047298     6.85807699     7.00032598     1.90329967    -0.77368354     0.08857814
Ti      1.44572399     6.99854000     2.25276100     1.07638734    -0.13897692    -0.09322464
Ti      1.42064898     2.44381500     6.96269602     0.71493381    -0.32702747     0.09458912
Ti      1.54120398     2.11098701     2.49401402    -0.40994764     0.93193962    -0.52476029
Ti      2.99676903     4.58836200     4.61056501    -0.62789036     0.21747324     0.34927781
Ti      2.98246002     4.79469001     9.22154002    -0.36650678     0.83931457    -0.68132999
Ti      2.90852502     9.27805499     4.69818099     0.56255270    -0.01005610     0.19379286
Ti      2.97447003     0.05039403     0.10209300     0.15782260    -0.10807868    -0.56229327
Ti      5.92322400     4.62830700     4.56273400     0.64350494    -0.15822832     0.32364776
Ti      5.91987198     4.69335902     9.27545699     0.47889411    -0.63064247     0.75541379
Ti      5.91353100     9.17482902     4.79880399    -0.43182054     0.17923398     0.37864676
Ti      0.02642002     9.23414698     9.27420401    -0.18172487    -0.01235750    -0.33767082
O       4.54662097     5.54770500     5.41803102    -0.43480122     0.48678251     0.85394030
O       4.54149198     5.63310998     0.99184401    -1.02193110    -1.41019379    -0.90617639
O       4.49220002     0.78500402     5.79257299    -0.36705134     0.14343136    -1.41263659
O       4.61223202     1.07550101     0.83694298    -0.77630812    -0.58682957     0.16374282
O       1.49522398     5.54590501     5.53792798    -0.33846734     0.04900833     0.16893002
O       1.46892699     5.68346802     0.74805898     0.57228587    -0.00667690     1.11690665
O       1.42843302     0.83914298     5.64002098     0.83613591     0.70900613    -0.72110574
O       1.45944202     0.81095001     0.98001103     0.15317918     0.87526349     0.90648595
O       4.42737601     8.33125899     8.32804598     0.30775756     0.78366508     0.56793659
O       4.50984802     8.29751198     3.95202398    -0.35056747    -0.15262305    -1.45746996
O       4.44994902     3.78055801     8.37587800    -0.28009685     0.00810258     0.93999798
O       4.42821799     3.86095601     3.55825699     0.24270580    -1.02778730    -0.05375767
O       1.57447700     8.54985899     8.36658300    -0.64838129    -1.24347877    -0.41321114
O       1.44785499     8.42789898     3.67535900    -0.06018261     0.73968377     0.40927709
O       1.55048299     3.96083800     8.31148501    -0.13308241    -1.74106223    -0.26343481
O       1.56251902     3.67075701     3.72591400    -0.16174353    -0.70392203    -0.19551910
O       2.93818101     6.10486102     7.85507302     0.66452268     0.00018023    -0.01432208
O       2.92611503     6.02927900     3.19911799    -0.02756044     0.51064313    -0.21764422
O       2.95339702     1.50292700     7.99630498     0.04485497     0.47660891    -0.45353428
O       3.20285700     1.42862702     3.19777499    -0.24597856     0.02975770    -0.05382092
O       5.78437000     6.00980300     7.94230498     0.58880675     1.14227188    -1.28358902
O       0.05026999     5.85378700     3.08688199     0.30768814     1.52329074     0.19325935
O       5.92933202     1.43860302     7.84145099     0.85412079     0.26197443     0.62813590
O       2.91184698     7.79869400     5.93406901    -0.18527453     0.02585708     0.52585995
O       2.94468798     7.90855300     1.42533099     0.64386258    -0.07329704     0.31335306
O       3.01600600     3.19111302     5.95269398    -0.14677713    -0.19158145     0.62426331
O       0.07210199     7.86083301     6.11871498    -0.56474765    -0.01225517    -0.10742407
O       5.88845901     7.87197600     1.44003402    -0.14984858     0.35563538    -0.10161672
O       0.02539998     3.24748199     6.03480001    -0.21202302    -0.14702730    -0.04663443
O       0.24668000     3.18810698     1.49290200    -0.60049782    -0.10099940    -0.11556779
