# total energy = -4989.07582249 eV

CRYSTAL
PRIMVEC
        3.63100993     0.00000000     0.00000000
        0.71900432     3.55911027     0.00000000
       -2.17504020    -1.77958220     4.65755515
PRIMCOORD
6 1
Ti      0.53912807     2.66946880     1.16438891     0.00116882    -0.00116882     0.00000000
Ti      1.63584597    -0.88994073     3.49316639    -0.00116882     0.00116882     0.00000000
O       0.17978912     0.88977236     0.75867773     0.00013678     0.00080476     0.36742980
O       1.99518481     0.88975562     3.89887762    -0.00013678    -0.00080476    -0.36742980
O      -0.17976529    -0.88975287     3.08745521     0.00080476     0.00013678     0.36742980
O       2.35473912     2.66928076     1.57010010    -0.00080476    -0.00013678    -0.36742980
