# total energy = -39030.49040511 eV

CRYSTAL
PRIMVEC
        5.93200024     0.00000000     0.00000000
        0.00000000     9.29399984     0.00000000
        0.00000000     0.00000000     9.29399984
PRIMCOORD
46 1
Ti      4.48908099     6.72532499     7.02830400    -2.27307175    -0.07069842     1.34491320
Ti      4.37981399     7.13418999     2.22954203    -0.80963503    -1.30960371     1.42488482
Ti      4.45098700     2.54742002     6.55929902     1.00842072     0.74443954     0.34228929
Ti      4.60670000     1.88100102     2.51541998     1.74261826    -0.60803501    -1.82282386
Ti      1.48877399     7.25617698     6.82843301     3.40309592    -3.40506925    -0.13466004
Ti      1.42375298     6.89110601     2.30570799     0.90712204    -0.08666292     2.15623898
Ti      1.59990799     2.08366701     7.16314201     0.14147423     0.96870898     0.36541689
Ti      1.67566500     2.65901598     2.16433897    -0.69364892    -0.25975145    -0.27219868
Ti      2.85831001     4.61414002     4.72934101    -0.99892074     1.66634672    -0.06750202
Ti      3.02680899     4.72423001     9.07612698    -0.09665037     0.75516542    -0.45460849
Ti      2.97580398     9.22855601     4.64750899    -0.15987485    -1.54629081    -0.36762367
Ti      2.90754101     0.02096002     9.25961501     2.84692342     0.55994328    -0.03238203
Ti      5.81179398     4.58933198     4.57987998     0.60109149     0.57083602     0.85426580
Ti      5.91191400     4.81569401     0.02539802     0.12305510    -0.04038279    -0.38793822
Ti      0.01740400     9.11945702     5.09655600     0.43930888     2.36189800    -3.22262678
Ti      0.05996102     9.26219602     9.04722602    -4.19269280     1.40136359     1.38194789
O       4.23888303     5.43765698     5.77989999     1.70378122    -0.11684923    -1.02220595
O       4.27663898     5.60642299     0.90666103     1.25955845    -0.53134798    -0.05896287
O       4.33851001     0.94046000     5.59044199     1.18553405    -0.48127778    -0.75149645
O       4.49081098     0.67098501     0.89694602     0.28299577     2.01357561     1.89282062
O       1.35606798     5.62220501     5.64792202    -0.33630993    -0.06241715    -0.37996317
O       1.60096401     5.59113902     1.12004900    -0.95208294    -1.62005450    -1.76360902
O       1.69516799     0.74312102     5.78768302    -1.36004826     0.30097679    -0.80575138
O       1.54436798     1.03635200     0.58141699    -1.33147455     0.64629021     1.96390137
O       4.39533698     8.47421199     8.32863501     0.84701091    -1.05313967    -0.56825386
O       4.59015602     8.41285500     3.78669397     0.14828997     1.08749682    -0.07179088
O       4.44180800     4.06928600     8.01638900     0.89141825    -0.46633684     1.47567878
O       4.24867000     3.39369102     4.39111700     1.07998817     0.06710505    -2.20094765
O       1.38309100     8.81512898     7.97266700     2.26111792    -2.22945631    -0.20521730
O       1.52467999     8.16469003     4.13297201    -1.42215302     1.14232125    -1.21258284
O       1.55879197     3.59727000     8.79114598    -0.97572990     0.21586193    -0.05274389
O       1.51206599     3.94053199     3.57361102    -0.13899620    -1.33057338    -0.78843216
O       2.85485300     6.21222902     7.94905199    -0.77683623     0.28572397     0.28973747
O       2.94512498     6.14406702     3.28491900     0.48345268    -0.00794728    -0.03035060
O       3.20153803     1.44500299     7.96290601    -0.61307772     1.58033737    -1.41974672
O       2.94079001     1.60054300     3.07200501    -2.59978632    -1.28879628     1.03880782
O       0.05254899     6.32802898     8.12669700     1.03496788    -0.98946654     0.45944679
O       5.67972298     5.79374300     3.21239500     0.36317977     1.95352928    -1.00507031
O       5.84521602     1.50103302     7.73077802    -0.57042593     0.45596217     0.06585215
O       3.12888802     7.68554601     5.95076698    -0.23991924     1.36131915     0.52326571
O       2.89005202     8.10020200     1.51336301    -0.73771842    -1.45086711     0.28146545
O       2.68954702     3.27960802     6.11536000     0.08295487    -0.92987683     1.51028893
O       5.80271801     7.78247498     6.15351701    -1.41113301    -0.59283079     0.20494014
O       0.00669198     7.80672400     1.47361899     0.37757667     0.87068410    -0.97025679
O       0.24428198     3.22428799     5.76270199    -0.59940099    -2.09215935     2.78804180
O       5.77755399     2.93572399     1.63037198     0.07464995     1.56000585    -0.29445776
