# total energy = -19956.06741205 eV

CRYSTAL
PRIMVEC
        5.18995437     0.00000000     0.00000000
        1.35970191     5.35371468     0.00000000
        0.00000000     0.00000000     9.36344519
PRIMCOORD
24 1
Ti      2.68686699     3.17260652     3.47377156     1.33532015    -1.84196213     0.91659322
Ti      3.86278944     2.18110852     5.88967416    -1.33532015     1.84196213    -0.91659322
Ti      5.02994480     2.18111037     1.20791392    -2.47933884    -0.39759708     1.02312229
Ti      1.51971166     3.17260488     8.15553191     2.47933884     0.39759708    -1.02312229
Ti      2.00701614     0.49574922     1.20795146     1.33532015    -1.84196213    -0.91659322
Ti      4.54264031     4.85796603     8.15549437    -1.33532015     1.84196213     0.91659322
Ti      0.83986071     0.49574717     5.88963662     2.47933884     0.39759708     1.02312229
Ti      5.70979574     4.85796803     3.47380910    -2.47933884    -0.39759708    -1.02312229
O       2.12142749     1.88513407     4.77809463     0.26044488     0.81452887    -0.74444520
O       4.42822888     3.46858098     4.58535109    -0.26044488    -0.81452887     0.74444520
O       1.43113388     1.88515567     0.09640194     0.41983379    -0.58648402     0.38850334
O       5.11852261     3.46855946     9.26704351    -0.41983379     0.58648402    -0.38850334
O       3.74837802     0.79172352     0.09637156    -0.26044488    -0.81452887    -0.74444520
O       2.80127840     4.56199152     9.26707389     0.26044488     0.81452887     0.74444520
O       4.43867174     0.79170195     4.77812501    -0.41983379     0.58648402     0.38850334
O       2.11098464     4.56201315     4.58532071     0.41983379    -0.58648402    -0.38850334
O       1.01561082     3.25643288     2.52930029    -0.10545306     0.02149237    -0.18728591
O       5.53404555     2.09728216     6.83414543     0.10545306    -0.02149237     0.18728591
O       3.31619207     2.09723224     2.15245237     1.09728373    -0.31344562    -0.82475878
O       3.23346437     3.25648285     7.21099319    -1.09728373     0.31344562     0.82475878
O       0.33575996     0.57957542     2.15242246    -0.10545306     0.02149237     0.18728591
O       6.21389647     4.77413967     7.21102310     0.10545306    -0.02149237    -0.18728591
O       2.55361350     0.57962534     6.83417528    -1.09728373     0.31344562    -0.82475878
O       3.99604293     4.77408970     2.52927038     1.09728373    -0.31344562     0.82475878
