# total energy = -4977.03401943 eV

CRYSTAL
PRIMVEC
        4.07195064     0.00000000     0.00000000
        0.00000000     2.12671218     0.00000000
        0.00000000    -0.00011217     5.67123166
PRIMCOORD
6 1
Ti      2.03597512     1.06329995     2.83561583     0.00000000     0.00000000     0.00000000
Ti      0.00000000     0.00000000     0.00000000     0.00000000     0.00000000     0.00000000
O       2.03597512     0.41444301     1.10523954    -0.00000000    -1.14310723    -1.26129549
O       2.03597512     1.71215694     4.56599217    -0.00000000     1.14310723     1.26129549
O       0.00000000     0.64881288     3.94085652     0.00000000     1.14223537    -1.25986647
O       0.00000000     1.47778707     1.73037514     0.00000000    -1.14223537     1.25986647
