# total energy = -19516.62054659 eV

CRYSTAL
PRIMVEC
        5.93400000     0.00000000     0.00000000
        0.00000000     9.29699974     0.00000000
        0.00000000     0.00000000     4.64899994
PRIMCOORD
23 1
Ti      4.42879500     7.03137699     2.25264903     1.69979910     0.04332285     0.19189178
Ti      4.45013101     2.24545603     2.25603603    -0.01581358    -0.63080600     0.37496160
Ti      1.44629799     7.25706701     2.37348300    -0.85202662    -1.51562191    -0.68966474
Ti      1.41083502     2.29259900     2.37962998     0.32466514    -0.03660609    -0.55058215
Ti      3.10324901     4.37632798     0.08380898    -0.98978355     0.60629669     0.35092846
Ti      2.85739099     0.03111800     4.54940302     1.75472148    -0.16550171     0.60411305
Ti      0.10940502     4.59058100     0.11482300     0.13071236     0.89606295    -0.42599827
Ti      5.92490498     0.10920398     0.04864499    -1.58179570    -0.26604011     0.56495025
O       4.41447600     5.50570701     0.84616702     0.08056632     1.00423136     0.84813474
O       4.28536299     0.98861799     0.89193598     1.17611558    -0.47859895    -0.03011020
O       1.69460500     5.48449499     0.70899401    -0.84646815     0.66941447     0.66332352
O       1.56717901     0.94639599     0.98991601    -0.72167293    -0.79578372    -1.38378366
O       4.48287798     8.53517601     3.79302299    -0.21342787    -1.41071546    -0.83202112
O       4.57563301     3.80346598     3.80453201    -0.69308225    -1.21188555    -2.34415635
O       1.45926998     8.12375102     3.94025402    -0.01465992     1.74062437     0.25405723
O       1.30237797     3.72886601     3.56150598     1.35035211     0.49882017     0.66358989
O       2.87110901     1.41376502     3.19581699     0.48961587    -0.14262249     0.78538386
O       5.93286698     6.17450302     3.11693401    -0.17719278    -0.62155362     0.09758163
O       0.01891200     1.30682301     3.19660101    -0.11191373     0.30409760     0.20153240
O       3.03443099     8.07168501     1.45642301    -0.44377797    -1.33850189     0.77031822
O       3.01996202     3.16515201     1.43875801    -0.59491287     0.68316036    -0.17518732
O       5.91789597     7.95113499     1.45702801    -0.35669904     0.82378716    -0.71496235
O       5.86407198     2.98389399     1.20441102     0.60668004     1.34441980     0.77569980
