# total energy = -19515.64200886 eV

CRYSTAL
PRIMVEC
        5.17600016     0.00000000     0.00000000
        0.00000000     5.50899976     0.00000000
        0.00000000     0.00000000     9.26300011
PRIMCOORD
23 1
Ti      1.93076299     3.24190801     3.36128701    -0.38224656    -1.02123638     3.93363837
Ti      3.44749400     2.21249098     5.82082000    -0.58271247     1.07096411    -2.54889235
Ti      4.19741400     2.22708098     1.58634602     1.13349567    -0.59226797    -1.82747756
Ti      0.75753300     3.44404599     7.70174000     0.62836088     1.21491843     2.82432753
Ti      1.88250499     5.45320199     1.41911299     0.07476437     2.67416579    -0.16110024
Ti      3.20806702     5.10723199     7.96011899     1.65046167    -0.90056650     2.10587877
Ti      0.85257303     0.63955902     5.93039202    -0.59253357    -1.23681087    -3.50766710
Ti      4.53217698     4.94689901     3.33726501     2.18613527     1.80928725     3.38619683
O       1.90036499     1.88749699     4.84151098    -1.20827727    -0.17160526    -0.08778392
O       3.63739402     3.61495998     4.50562403     0.38779243    -1.39628128     0.72136337
O       4.75452699     2.76732698     9.19880800     0.42226734     1.18330516    -0.51327106
O       3.34223102     0.61500297     0.35254598     0.48557255     0.42413910     0.73994320
O       1.70108297     4.69743803     9.04348802    -1.71927058    -2.30563710     0.15997230
O       4.30552703     0.66002601     4.71527701    -0.22922062     1.86574201     1.39398220
O       1.00069799     4.80360400     4.27500498     1.55049791    -0.12641502     1.65684855
O       0.35354702     3.53955597     2.42331001    -0.70473270    -0.24746337    -1.77122205
O       0.03194701     2.25104700     6.62139300    -0.27322995    -1.61623487    -0.74629922
O       2.46229000     1.80730700     2.36580300     1.24277608    -0.88700032    -1.35913166
O       2.64713098     3.60761298     6.90558102    -1.10587276    -0.83984319     1.13497252
O       0.20585498     0.92986598     2.07627801    -0.31060429    -1.80605023    -0.11614886
O       5.00381599     4.93485800     7.18716899    -0.12949520     0.25795399     0.03523004
O       2.45061799     0.83146198     7.06295098    -1.01332124     2.52286352    -1.69148929
O       3.06757501     4.36267002     2.43861398    -1.51060697     0.12407300    -3.76187036
