# total energy = -4924.48999249 eV

CRYSTAL
PRIMVEC
        4.72351018     0.00000000     0.00000000
       -0.00000653     2.27428253     0.00000000
       -2.36178155    -1.13720481     5.08874082
PRIMCOORD
6 1
Ti     -0.00020179     1.70578731     1.27218494    -0.04341284    -0.03322689    61.65572279
Ti      2.36192384    -0.56870973     3.81655525     0.04341284     0.03322689   -61.65572279
O       0.00005026     0.56855973     0.82891418     0.04458295     0.03337422   -50.82277053
O       2.36167164     0.56851776     4.25982606    -0.04458295    -0.03337422    50.82277053
O      -0.00001930    -0.56858558     3.37328449    -0.00066926     0.00043349     0.21755860
O       2.36174115     1.70566307     1.71545575     0.00066926    -0.00043349    -0.21755860
