# total energy = -19961.71811152 eV

CRYSTAL
PRIMVEC
        7.60600008     0.00000000     0.00000000
        0.00000000     7.60600008     0.00000000
       -1.89786986    -1.89786986     4.85670466
PRIMCOORD
24 1
Ti      3.78294401     6.55133601     1.23911700    -0.33749907     1.17806988    -0.39060342
Ti      3.81967299     2.85834001     1.23291901    -1.06894836    -1.31365448    -0.60907580
Ti      0.01123898     6.71145103     1.16998301     0.38112068    -0.11075031     1.07502928
Ti     -0.01052301     2.90132900     1.20807901     0.66212873     0.09843524    -0.36776816
Ti      5.72000623     2.88667423     3.62118379     0.22521072    -0.37881440     0.39759631
Ti      5.72562625    -0.96189877     3.60773279     0.41981528     0.56307951     0.01705722
Ti      1.90378025     2.82228521     3.63359680    -0.46450364    -0.26666103    -0.19946754
Ti      1.91448222    -1.02587080     3.64075583    -0.53690285     0.40011574     0.89642085
O       3.62963798     4.65365300     0.80420400     0.57454792     1.13217207    -0.32874703
O       3.68122598     0.86501202     0.87835798     0.70067035     0.66232850    -0.32862619
O       0.04530800     4.84576599     0.73357598    -0.32326826    -0.27603451     0.26128640
O       0.00350601     0.99641801     0.71367500    -0.28466236    -0.02247556     0.66981787
O       5.88397624     4.82233624     4.07313481    -0.26225159    -0.60100921    -0.58798811
O       5.71658822     1.02737324     4.10297083    -0.21150648    -0.29511570    -1.03953750
O       1.75052321     4.69715920     4.09300981     0.49948017    -0.37113991     0.11894339
O       1.83250425     0.87521223     4.08374582     0.71500503     0.41507005     0.17897559
O       3.79477324     2.97673321     3.25846083     0.04478426    -0.44013703     0.00433128
O       3.78534224    -1.07185577     3.21131881     0.90807566    -0.08400671     0.67839945
O       0.06231221     2.72696922     3.12797281    -1.87680830     0.19299222     0.87494442
O       0.06009321    -0.98642180     3.17817183    -1.24658929     0.33792150    -0.17106636
O       5.69357102     6.64144400     1.65448098     0.46120928     0.06082204    -0.54087443
O       5.64921898     2.99191599     1.63933302     0.73032521    -0.20874589    -0.07614556
O       1.94483398     6.68502301     1.69965002    -0.99952058    -0.20322830    -0.59626938
O       1.81758299     2.97399498     1.63636502     1.29008749    -0.46923396     0.06336743
