# total energy = -39035.90205940 eV

CRYSTAL
PRIMVEC
        5.93200024     0.00000000     0.00000000
        0.00000000     9.29399984     0.00000000
        0.00000000     0.00000000     9.29399984
PRIMCOORD
46 1
Ti      4.47011502     6.92574702     7.05383802    -0.10971184     0.39866461    -0.14419960
Ti      4.44257499     6.87813001     2.40533201    -0.80356671     0.45180367    -0.46318801
Ti      4.53616999     2.38763399     6.92712102    -0.56094678    -0.76662020     0.66969472
Ti      4.38398200     2.51324199     2.17616497     0.18108723    -0.37405940     0.38442635
Ti      1.55424798     6.98323202     6.90411002     0.17511996     0.69411481     0.82846451
Ti      1.45921801     7.02783901     2.31589100     1.13284801     0.21825152    -0.83920941
Ti      1.50877298     2.17275099     6.88902598     0.28427181     0.40015122     1.77880630
Ti      1.48809199     2.18867801     2.48451502     0.31460416    -0.04368666    -0.71197138
Ti      2.90362600     4.48961398     4.72001500     0.74400168     1.19503711    -0.29776959
Ti      2.95104901     4.76863602     9.12694102    -1.20870510    -0.37834080     0.73360182
Ti      3.02688397     9.19032301     4.62432198     0.10299020     0.20191472    -0.78933950
Ti      2.92755402     0.06089200     9.29092400    -0.09014754    -0.93067773    -0.33364961
Ti      5.93165601     4.73133998     4.72925301    -0.91091159     0.10710423     0.01427297
Ti      5.89643498     4.67806199     9.28874400     1.17960457    -0.09058000     0.45420765
Ti      0.01646900     9.12631002     4.85014800     0.07020220     0.88246258    -1.85422809
Ti      5.88139100     9.25471203     0.01105801     0.09281557    -0.46924167    -0.27958803
O       4.40438400     5.54841399     5.58089701     0.72537892    -0.14894689    -0.11078013
O       4.32009099     5.65133399     0.87869501     0.15163986    -0.81473559     0.23612429
O       4.63289502     0.96816402     5.49955299    -1.15320293    -0.12670427    -0.44645577
O       4.51201199     0.96276699     0.77164600    -0.34605776     1.02445592     1.15961784
O       1.46975600     5.64051401     5.58779298    -0.49420375    -1.45632325    -1.16324438
O       1.48872298     5.68183498     0.84970901    -0.16778743    -0.75033123     0.04968993
O       1.58276598     0.93546197     5.58910899    -0.03522901    -0.85093750    -1.41788242
O       1.45898698     1.00198299     0.94774598    -0.28994650    -0.15814579    -0.23166368
O       4.37117702     8.21284902     8.48729002     0.76523206     0.99086033    -0.66022817
O       4.53879301     8.19839698     3.86054002    -0.02867424     1.37341774    -0.14627088
O       4.39558098     3.63955598     8.38379999     0.17000372     1.30069483     0.91842282
O       4.38447302     3.77554902     3.79294001     0.24850853    -0.79177948    -1.13983293
O       1.57706902     8.44068898     8.09921900    -0.21755243     0.81165952     2.16194118
O       1.42404598     8.58033499     3.58271202     0.14729110     0.45571843     0.93741942
O       1.40566300     3.79840800     8.49057299     0.44391244    -0.60864668    -0.25689264
O       1.46416498     3.70469298     3.71142301    -0.13451682    -0.18875067     0.25637019
O       2.92665299     6.05034798     7.87407398     0.60800827     0.29833138    -0.84420610
O       2.83945701     6.21544599     3.37981001     0.64203247    -0.29200878    -1.13438810
O       3.09094300     1.45728398     7.83319302    -0.83573251    -0.41840889    -0.02207601
O       3.06896801     1.33707898     3.22376802     0.08212775     1.08615136    -0.65162217
O       5.89271799     6.07932001     7.81780799     0.69091995    -0.47965876     0.46775352
O       0.03130999     6.08833899     3.17405399    -0.59027485    -0.93550909     0.79055692
O       0.04478702     1.32484102     7.78877801    -0.43523573     0.58361544     0.14297884
O       3.06202902     7.79461298     5.93771202    -0.35284676     0.47888691     0.35032811
O       2.86261000     7.95727397     1.29683500     0.31180911    -0.16477872     1.06463996
O       2.87576402     3.34006102     6.20924800     0.66532410     0.08810557    -1.01055705
O       0.13715798     7.91644102     6.06849500    -1.46005341    -1.18164860     0.96440624
O       5.86566502     7.91107601     1.42873100    -0.20702582     0.26536597    -0.31943680
O       0.03473303     3.26317299     6.05282601     0.42840662     0.30522271    -0.15986894
O       5.87217300     3.40353102     1.42343600     0.07418870    -1.19146842     1.06482508
