# total energy = -19960.53217058 eV

CRYSTAL
PRIMVEC
        5.93400000     0.00000000     0.00000000
        0.00000000     9.29699974     0.00000000
        0.00000000     0.00000000     4.64899994
PRIMCOORD
24 1
Ti      4.45137002     6.78449500     2.37189298     0.01812448     2.76550915     0.22703981
Ti      4.43265900     2.46674901     2.36600800     0.76027009    -2.03150084     0.20415595
Ti      1.52079001     6.98280402     2.20883802    -0.06831964     1.73086395     0.11628101
Ti      1.44987798     2.33687198     2.30598798    -0.64035122    -0.28748724     1.24850528
Ti      2.99606898     4.66299002     0.06925602    -0.57380128    -1.04135013    -0.58358716
Ti      2.89156197     0.08183001     0.02601499     2.38058067    -0.08665675    -1.06933094
Ti      0.02888599     4.69918198     4.57268301     0.65769409    -1.41878050    -0.26470442
Ti      0.01422301     0.01974397     0.09248600    -2.90942388    -0.26871123    -1.16735789
O       4.46739002     5.46618101     0.89058499    -0.16921362     0.32058043     0.27397763
O       4.44729800     0.79879200     0.99992100     0.18336472     0.21746399    -0.38093453
O       1.44248400     5.55412302     0.85716999     0.60471932    -0.48986115    -0.05459303
O       1.41813798     0.89542501     1.04905998     0.67876686    -0.88958274    -1.01219330
O       4.46387803     8.42973702     3.70670799     0.02267482    -0.65572282    -0.10839826
O       4.45630201     3.72857899     3.74785998    -0.24399495     0.99520730     0.53832184
O       1.61362500     8.45838700     3.62970698    -0.76134121    -0.34880858     0.33237563
O       1.43455502     3.73598900     3.65172102     0.23800711     0.91807906     1.28030623
O       3.03349102     5.96997702     3.21612300    -0.74145372    -0.00556953     0.15570529
O       2.98332798     1.56522000     3.39252302    -0.54638405    -0.57332922    -0.22565244
O       0.04307000     6.00402402     3.15602402    -0.01099378     0.02938721     0.40038725
O       5.83346400     1.45571301     3.19934998     0.95984125    -0.26329083     0.78448140
O       2.99599600     7.67687999     1.29671303    -0.27521870     0.28682775     0.60306147
O       2.96231800     3.13080502     1.36979600    -0.46702821     1.23254695    -0.84239707
O       5.92054398     7.83321498     1.34308599     0.79851063    -0.73451791     0.51993639
O       5.92658401     3.24524002     1.46124498     0.10497047     0.59870396    -0.97538614
