# total energy = -4986.34622857 eV

CRYSTAL
PRIMVEC
        3.83757224     0.00000000     0.00000000
        0.00000000     3.23771560     0.00000000
        0.00000000    -0.00007314     5.08275574
PRIMCOORD
6 1
Ti      1.91878602     1.61882118     2.54137803     0.00000000     0.00000000     0.00000000
Ti      0.00000000     0.00000000     0.00000000     0.00000000     0.00000000     0.00000000
O       1.91878602     0.63096882     0.99055428     0.00000000    -0.88910863     0.23125205
O       1.91878602     2.60667359     4.09220172     0.00000000     0.88910863    -0.23125205
O       0.00000000     0.98782321     3.53193328     0.00000000     0.88979100     0.23312072
O       0.00000000     2.24981914     1.55082277     0.00000000    -0.88979100    -0.23312072
