# total energy = -19518.03330499 eV

CRYSTAL
PRIMVEC
        7.60600008     0.00000000     0.00000000
        0.00000000     7.60600008     0.00000000
       -1.89786986    -1.89786986     4.85670466
PRIMCOORD
23 1
Ti      3.87218298     6.84642499     1.16677001     0.15937272    -0.37051024    -0.38632048
Ti      3.69445499     2.90556998     1.38559898    -0.63817221     0.23251369     0.48048151
Ti     -0.00215597     6.63561400     1.14879100    -0.29815706    -1.43256265    -0.77351899
Ti     -0.08661102     2.71810201     1.15864301     1.36285822     1.63925037    -0.29492621
Ti      5.67754023     2.73344222     3.65578484    -0.74945037     0.67074141     3.11317205
Ti      5.69574620    -1.03228876     3.51649882    -0.28469682    -0.18702108     0.78860880
Ti      2.03670624     2.81026225     3.82007283     0.00361112     0.80777124    -0.21011063
Ti      1.83032224    -0.86496376     3.51928981     0.35214099    -0.50942186     1.30268024
O       3.99869402     4.74729298     0.99694401    -0.86134610     0.16832504    -0.59596754
O       3.76695201     1.06069198     0.68894301     0.06523842    -0.44543736     0.61732313
O      -0.04346498     4.67524603     0.80392999     0.30994634     1.18703069     0.66179423
O       0.02670398     0.92421003     0.66807998    -0.06522377    -0.93461049    -0.26745936
O       5.77803422     4.60826023     3.81981782    -0.07620701     1.97531424     1.67954291
O       5.73314924     0.94744921     4.05255479     0.78473774    -2.07435806    -0.26036440
O       2.08859323     4.71872725     4.02353482    -1.07475520     1.17809430     0.57529072
O       1.68800124     1.02630922     4.08467479    -0.45113904    -1.02859823    -0.19730627
O       3.82457920     2.70367722     3.49748982    -0.46702306    -0.05780896    -1.81583637
O       3.85911723    -0.79260079     3.17028381    -0.87266668    -0.28359767    -0.32208890
O      -0.09676080     6.37047720     3.11313579     1.68523636     0.96269234    -0.16965662
O       5.73829798     6.93660600     1.44436602    -0.14228773    -0.55846644     0.77868588
O       5.76759498     2.84152800     1.91986501     0.84936964    -0.66182380    -4.22051060
O       1.86227301     6.84203901     1.67732599     0.41646950    -0.21065262    -1.19497566
O       1.80854803     2.84264202     1.65902100    -0.00785575    -0.06686465     0.71146256
