# total energy = -19518.27870185 eV

CRYSTAL
PRIMVEC
        7.60600008     0.00000000     0.00000000
        0.00000000     7.60600008     0.00000000
       -1.89786986    -1.89786986     4.85670466
PRIMCOORD
23 1
Ti      3.73445100     6.66065398     1.10553002     2.06817250     0.17722955     0.94308999
Ti      3.82508298     2.83579198     1.19550899     0.29975680    -0.36710996     1.74892827
Ti      0.05825802     6.68938502     1.24754198    -1.99471914     1.33285780    -0.82875736
Ti      0.00755797     2.93375598     1.13799700     0.18030125    -1.65514005     1.67903357
Ti      5.69741020     2.92011622     3.72166783    -1.52956038     0.23327011    -1.52562350
Ti      5.60675325    -0.91344476     3.58173479    -0.30324502    -0.36331835     0.09399802
Ti      2.00955722     2.77523024     3.73692681     1.52971413    -0.08474565    -1.29468051
Ti      1.87354322    -0.99185179     3.56557779     0.65019264    -0.09733352     1.04596423
O       3.98933700     4.68748198     0.78589801    -0.86263603    -0.07276122     0.18834675
O       3.75331802     0.93635798     0.94249802    -0.12518629    -0.61869970    -1.26577564
O      -0.15790501     4.77242699     0.73059502     1.05994873     0.98961335     1.40200045
O       0.05416198     0.96773300     0.83436700     0.22622554    -0.92300504    -0.03535268
O       5.60798025     4.82293522     4.09871784     0.89216670    -0.42059767    -0.39879059
O       5.46162321     0.97054225     4.21768979     0.55077550    -0.30240710    -3.01792859
O       1.98820122     4.65736724     4.07688779    -1.19046363     1.62447886    -0.62878819
O       2.04389522     0.88076822     4.07615282    -0.65138563    -0.37167187    -0.39797375
O       3.86910322     2.95292225     3.26312479    -0.49680288    -0.29249138    -0.79042091
O       3.70784921    -1.07743780     3.13333782     0.63977735     0.40072277     0.85181271
O      -0.08993378    -0.83088480     3.19115382     1.25484896    -0.27452476     0.26181553
O       5.65737302     6.59538600     1.59097601     0.20411764     0.46460854     0.67648166
O       5.78187303     2.74300298     1.64467802     0.27102291     0.22659835     1.01656417
O       1.93873500     6.47738402     1.60004801    -1.88003375    -0.05609584     0.02008624
O       1.91218601     2.81942400     1.67009398    -0.79298739     0.45052249     0.25597038
