# total energy = -19892.20335509 eV

CRYSTAL
PRIMVEC
        8.91264607     0.00000000     0.00000000
        0.00002919     4.06532159     0.00000000
        0.00000000     0.00000000    13.56435072
PRIMCOORD
24 1
Ti      3.23042268     2.40910582     5.03227738     0.24280942    -0.33333439     2.77941086
Ti      5.68225219     1.65621583     8.53207354    -0.24280942     0.33333439    -2.77941086
Ti      7.68659317     1.65621721     1.74984383     0.25835663     0.33388101    -2.78108799
Ti      1.22608170     2.40910457    11.81450722    -0.25835663    -0.33388101     2.78108799
Ti      3.23040828     0.37644510     1.74989825     0.24280942    -0.33333439    -2.77941086
Ti      5.68226659     3.68887662    11.81445280    -0.24280942     0.33333439     2.77941086
Ti      1.22606730     0.37644358     8.53201913    -0.25835663    -0.33388101    -2.78108799
Ti      7.68660757     3.68887813     5.03233179     0.25835663     0.33388101     2.78108799
O       2.82091893     1.43146883     6.92178440     1.14577398     1.05331554    -2.43107099
O       6.09175594     2.63385276     6.64256652    -1.14577398    -1.05331554     2.43107099
O       1.63547656     1.43148523     0.13965258    -1.14620259     1.05338598    -2.43204261
O       7.27719837     2.63383643    13.42469795     1.14620259    -1.05338598     2.43204261
O       6.09174161     0.60119197     0.13960858    -1.14577398    -1.05331554    -2.43107099
O       2.82093326     3.46412968    13.42474195     1.14577398     1.05331554     2.43107099
O       7.27718404     0.60117557     6.92182840     1.14620259    -1.05338598    -2.43204261
O       1.63549077     3.46414608     6.64252252    -1.14620259     1.05338598     2.43204261
O       0.32383466     2.47275902     3.66406956    -2.12046747     0.63627551     0.01096422
O       8.58884021     1.59256256     9.90028136     2.12046747    -0.63627551    -0.01096422
O       4.78016904     1.59252469     3.11814902    -2.12126040    -0.63614849    -0.01102001
O       4.13250583     2.47279696    10.44620170     2.12126040     0.63614849     0.01102001
O       0.32382033     0.44009823     3.11810573    -2.12046747     0.63627551    -0.01096422
O       8.58885454     3.62522342    10.44624499     2.12046747    -0.63627551     0.01096422
O       4.13249150     0.44013610     9.90032457     2.12126040     0.63614849    -0.01102001
O       4.78018337     3.62518555     3.66402628    -2.12126040    -0.63614849     0.01102001
