# total energy = -19947.16761556 eV

CRYSTAL
PRIMVEC
        5.77276815     0.00000000     0.00000000
        0.30703831     6.13629424     0.00000000
        0.00000000     0.00000000    10.33521635
PRIMCOORD
24 1
Ti      2.27430134     3.63636213     3.83429155     0.05633135    -0.95588920     0.64786476
Ti      3.80550488     2.49993187     6.50092492    -0.05633135     0.95588920    -0.64786476
Ti      5.10372730     2.49993397     1.33327538    -0.01200011     0.40789281    -0.44029695
Ti      0.97607898     3.63636027     9.00194121     0.01200011    -0.40789281     0.44029695
Ti      2.12078231     0.56821525     1.33331680     0.05633135    -0.95588920    -0.64786476
Ti      3.95902392     5.56807894     9.00189979    -0.05633135     0.95588920     0.64786476
Ti      0.82255994     0.56821297     6.50088344     0.01200011    -0.40789281    -0.44029695
Ti      5.25724634     5.56808121     3.83433303    -0.01200011     0.40789281     0.44029695
O       1.93523089     2.16069342     5.27398180     1.25323405     1.23725618    -0.11655869
O       4.14457533     3.97560058     5.06123467    -1.25323405    -1.23725618     0.11655869
O       1.16741487     2.16071819     0.10640684    -1.03258832     0.84116499     0.21481138
O       4.91239141     3.97557588    10.22880934     1.03258832    -0.84116499    -0.21481138
O       3.99105630     0.90745352     0.10637333    -1.25323405    -1.23725618    -0.11655869
O       2.08874992     5.22884048    10.22884285     1.25323405     1.23725618     0.11655869
O       4.75887238     0.90742882     5.27401537     1.03258832    -0.84116499     0.21481138
O       1.32093379     5.22886531     5.06120110    -1.03258832     0.84116499    -0.21481138
O       0.39649612     3.73244187     2.79179983     0.35229294     0.05213788     0.46395394
O       5.68331016     2.40385214     7.54341671    -0.35229294    -0.05213788    -0.46395394
O       3.21641079     2.40379496     2.37584127     0.47120214     0.50001753    -0.10136089
O       2.86339549     3.73249904     7.95937502    -0.47120214    -0.50001753     0.10136089
O       0.24297708     0.66429481     2.37580829     0.35229294     0.05213788    -0.46395394
O       5.83682920     5.47199920     7.95940800    -0.35229294    -0.05213788     0.46395394
O       2.70987645     0.66435198     7.54344963    -0.47120214    -0.50001753    -0.10136089
O       3.36992983     5.47194203     2.79176678     0.47120214     0.50001753     0.10136089
