# total energy = -19961.54308836 eV

CRYSTAL
PRIMVEC
        7.60600008     0.00000000     0.00000000
        0.00000000     7.60600008     0.00000000
       -1.89786986    -1.89786986     4.85670466
PRIMCOORD
24 1
Ti      3.80440300     6.60926298     1.19791198    -0.98281123    -0.66246991     0.73404277
Ti      3.81706700     2.77697600     1.16527101    -1.79095528     1.30301525     0.48832081
Ti      0.02602102     6.69651002     1.24821102     0.68844989     0.40735545    -0.37661045
Ti     -0.08138497     2.95044802     1.21629200     2.49909109    -0.82157292    -0.16224233
Ti      5.67164122     2.92734325     3.62339480     1.00069609    -1.11595097     0.25999185
Ti      5.70577220    -0.95028878     3.63386182    -0.18027348     0.99890969     0.79086006
Ti      1.94272520     2.81888922     3.67784179    -1.04291491    -0.80471702    -1.64552232
Ti      1.87243422    -1.04966176     3.72355583     0.36664510     1.08775239    -1.47642157
O       3.68423600     4.67712201     0.73651202     1.00639083     1.58949076     0.53251011
O       3.73715399     0.97599499     0.77488599     0.33708358    -2.40964983     0.51600491
O       0.05317999     4.77953199     0.73704601    -0.65646896     0.35601102     0.06861300
O       0.00280602     0.95915102     0.82766100    -0.18736278     0.21327180    -0.54277499
O       5.75876020     4.78222021     4.06055283    -0.30306761     0.06567834    -0.23824056
O       5.86189420     0.99793421     3.96788284    -0.77361463    -0.70175947     0.56335205
O       1.87625821     4.68534622     4.03841481     0.33532263     0.62434044     0.82019610
O       1.80316021     0.86397224     4.09724482     0.51525492     0.71056242    -0.84135371
O       3.78543421     2.79648623     3.16730984     0.88284902    -0.07789237     0.88701806
O       3.74742622    -0.96137779     3.24380579     0.58912968    -0.10164886    -0.21149722
O       0.02728221     2.84174422     3.15704681    -0.17959548     0.31745268     0.05441485
O       0.05885721    -1.01639678     3.16214480    -0.82002949    -0.12711307     0.53741552
O       5.67789700     6.64628899     1.71173801    -0.18923378    -0.09133847    -0.91765431
O       5.74669200     2.89129299     1.62371700    -1.36429546     0.22175027    -0.32935047
O       1.90550399     6.66588601     1.56445698     0.49679131    -0.05975503     0.20969077
O       1.94921800     3.02833101     1.62017098    -0.24708105    -0.92172283     0.27923682
