# total energy = -19961.58340858 eV

CRYSTAL
PRIMVEC
        5.09970998     0.00000000     0.00000000
        0.27124013     5.42085186     0.00000000
        0.00000000     0.00000000     9.13021355
PRIMCOORD
24 1
Ti      2.00913616     3.21239166     3.38724411     0.32057015    -0.13335160     0.09819509
Ti      3.36181373     2.20846000     5.74296955    -0.32057015     0.13335160    -0.09819509
Ti      4.50867389     2.20846185     1.17782624    -0.38837119    -0.33018710     0.34718802
Ti      0.86227605     3.21239001     7.95238752     0.38837119     0.33018710    -0.34718802
Ti      1.87351621     0.50196593     1.17786283     0.32057015    -0.13335160    -0.09819509
Ti      3.49743369     4.91888588     7.95235093    -0.32057015     0.13335160     0.09819509
Ti      0.72665609     0.50196392     5.74293291     0.38837119     0.33018710     0.34718802
Ti      4.64429386     4.91888789     3.38728075    -0.38837119    -0.33018710    -0.34718802
O       1.70959859     1.90877401     4.65907809    -0.19163545    -0.08455102    -0.16167411
O       3.66135130     3.51207765     4.47113556     0.19163545     0.08455102     0.16167411
O       1.03130372     1.90879589     0.09400066     0.30914262    -0.36070997     0.09859464
O       4.33964623     3.51205582     9.03621273    -0.30914262     0.36070997    -0.09859464
O       3.52573135     0.80165177     0.09397105     0.19163545     0.08455102    -0.16167411
O       1.84521854     4.61919989     9.03624234    -0.19163545    -0.08455102     0.16167411
O       4.20402627     0.80162994     4.65910775    -0.30914262     0.36070997     0.09859464
O       1.16692357     4.61922182     4.47110591     0.30914262    -0.36070997    -0.09859464
O       0.35026787     3.29726927     2.46629850    -0.21716085     0.00203220    -0.18443790
O       5.02068207     2.12358238     6.66391521     0.21716085    -0.00203220     0.18443790
O       2.84140325     2.12353187     2.09883736     0.07803352    -0.13539769    -0.09960200
O       2.52954669     3.29731978     7.03137614    -0.07803352     0.13539769     0.09960200
O       0.21464791     0.58684339     2.09880822    -0.21716085     0.00203220     0.18443790
O       5.15630203     4.83400826     7.03140528     0.21716085    -0.00203220    -0.18443790
O       2.39392673     0.58689390     6.66394429    -0.07803352     0.13539769    -0.09960200
O       2.97702321     4.83395775     2.46626931     0.07803352    -0.13539769     0.09960200
