# total energy = -4989.64211600 eV

CRYSTAL
PRIMVEC
        4.17300415     0.00000000     0.00000000
       -0.00000843     3.77557561     0.00000000
       -2.08653152    -1.88782570     5.08478992
PRIMCOORD
6 1
Ti     -0.00018241     2.83182357     1.27119723    -0.00131641    -0.00018152     1.79321991
Ti      2.08664629    -0.94407355     3.81359208     0.00131641     0.00018152    -1.79321991
O       0.00004240     0.94388679     0.82827064    -0.00023474    -0.00002160    -0.47854135
O       2.08642131     0.94386311     4.25651878     0.00023474     0.00002160     0.47854135
O      -0.00002140    -0.94387359     3.37066549    -0.00177998    -0.00032165    -0.90557964
O       2.08648511     2.83162344     1.71412393     0.00177998     0.00032165     0.90557964
