# total energy = -19910.11031199 eV

CRYSTAL
PRIMVEC
        7.92537135     0.00000000     0.00000000
        0.00002991     5.06099486     0.00000000
        0.00000000     0.00000000    12.10425323
PRIMCOORD
24 1
Ti      2.87258342     2.99914085     4.49059164     0.53389928    -0.49950691     2.06425439
Ti      5.05281732     2.06185395     7.61366172    -0.53389928     0.49950691    -2.06425439
Ti      6.83513274     2.06185565     1.56148668     0.53342389     0.49968149    -2.06525712
Ti      1.09026806     2.99913934    10.54276674    -0.53342389    -0.49968149     2.06525712
Ti      2.87256873     0.46864348     1.56153524     0.53360875    -0.51170525    -2.06430684
Ti      5.05283201     4.59235145    10.54271825    -0.53360875     0.51170525     2.06430684
Ti      1.09025330     0.46864165     7.61361317    -0.53392499    -0.51199245    -2.06518564
Ti      6.83514743     4.59235328     4.49064012     0.53392499     0.51199245     2.06518564
O       2.50844046     1.78206227     6.17670780     0.77875504     1.42399162    -1.85758827
O       5.41696034     3.27893246     5.92754556    -0.77875504    -1.42399162     1.85758827
O       1.45431234     1.78208271     0.12462008    -0.77889131     1.42456394    -1.85883988
O       6.47108852     3.27891209    11.97963289     0.77889131    -1.42456394     1.85883988
O       5.41694565     0.74843496     0.12458079    -0.77896304    -1.42472181    -1.85771451
O       2.50845515     4.31255977    11.97967217     0.77896304     1.42472181     1.85771451
O       6.47107377     0.74841459     6.17674701     0.77865477    -1.42486836    -1.85862674
O       1.45432690     4.31258021     5.92750628    -0.77865477     1.42486836     1.85862674
O       0.28796515     3.07838397     3.26966077    -2.17560840     0.71633326     0.28727049
O       7.63743565     1.98261076     8.83459252     2.17560840    -0.71633326    -0.28727049
O       4.25065995     1.98256371     2.78250435    -2.17541273    -0.71685314    -0.28959040
O       3.67474078     3.07843109     9.32174875     2.17541273     0.71685314     0.28959040
O       0.28795040     0.54788648     2.78246571    -2.17587630     0.71639780    -0.28964465
O       7.63745034     4.51310826     9.32178738     2.17587630    -0.71639780     0.28964465
O       3.67472609     0.54793359     8.83463109     2.17616941     0.71598873    -0.28776851
O       4.25067464     4.51306114     3.26962214    -2.17616941    -0.71598873     0.28776851
