# total energy = -4989.67409673 eV

CRYSTAL
PRIMVEC
        3.08933962     0.00000000     0.00000000
        0.48284577     4.81638976     0.00000000
       -0.00000322    -0.00006281     4.84660908
PRIMCOORD
6 1
Ti      1.78609114     2.40816347     2.42330454     0.00000000     0.00000000     0.00000000
Ti      0.00000000     0.00000000     0.00000000     0.00000000     0.00000000     0.00000000
O       1.63876871     0.93863123     0.94453272    -0.03821124    -0.28522672    -0.31968054
O       1.93341363     3.87769571     3.90207631     0.03821124     0.28522672     0.31968054
O       0.14732111     1.46950678     3.36783824     0.03823875     0.28448624    -0.31889327
O       0.33552166     3.34682004     1.47877079    -0.03823875    -0.28448624     0.31889327
