# total energy = -19949.65790607 eV

CRYSTAL
PRIMVEC
        5.46458943     0.00000000     0.00000000
        1.97513061     5.47032331     0.00000000
        0.00000000     0.00000000     9.93835969
PRIMCOORD
24 1
Ti      3.15111149     3.24170844     3.68706058     1.24391740    -2.82121495     1.07472846
Ti      4.28860875     2.22861472     6.25129922    -1.24391740     2.82121495    -1.07472846
Ti      5.51752631     2.22861658     1.28207964    -2.77513537    -0.42166056     0.85047445
Ti      1.92219396     3.24170675     8.65628027     2.77513537     0.42166056    -0.85047445
Ti      2.16354632     0.50654693     1.28211949     1.24391740    -2.82121495    -1.07472846
Ti      5.27617394     4.96377634     8.65624043    -1.24391740     2.82121495     1.07472846
Ti      0.93462868     0.50654492     6.25125938     2.77513537     0.42166056     0.85047445
Ti      6.50509159     4.96377841     3.68710042    -2.77513537    -0.42166056    -0.85047445
O       2.42505417     1.92619377     5.07146888     1.02869027     1.64239251    -0.94982525
O       5.01466607     3.54412940     4.86689092    -1.02869027    -1.64239251     0.94982525
O       1.69823468     1.92621584     0.10232101     0.28533625    -0.65350653     0.79085029
O       5.74148562     3.54410738     9.83603852    -0.28533625     0.65350653    -0.79085029
O       4.02710088     0.80896778     0.10228876    -1.02869027    -1.64239251    -0.94982525
O       3.41261936     4.66135539     9.83607077     1.02869027     1.64239251     0.94982525
O       4.75392043     0.80894570     5.07150113    -0.28533625     0.65350653     0.79085029
O       2.68579976     4.66137748     4.86685867     0.28533625    -0.65350653    -0.79085029
O       1.39992754     3.32736065     2.68459890     0.32982226     0.98399137     0.87959683
O       6.03979270     2.14296252     7.25376091    -0.32982226    -0.98399137    -0.87959683
O       3.70457263     2.14291156     2.28461259     1.35942168     0.54127038    -0.27638084
O       3.73514761     3.32741160     7.65374704    -1.35942168    -0.54127038     0.27638084
O       0.41236235     0.59219903     2.28458084     0.32982226     0.98399137    -0.87959683
O       7.02735789     4.87812414     7.65377880    -0.32982226    -0.98399137     0.87959683
O       2.74758242     0.59224998     7.25379255    -1.35942168    -0.54127038    -0.27638084
O       4.69213782     4.87807318     2.68456720     1.35942168     0.54127038     0.27638084
