# total energy = -19960.38011275 eV

CRYSTAL
PRIMVEC
        5.93400000     0.00000000     0.00000000
        0.00000000     9.29699974     0.00000000
        0.00000000     0.00000000     4.64899994
PRIMCOORD
24 1
Ti      4.39343099     7.05473598     2.23234899     0.82964902    -2.08572311     0.00998334
Ti      4.48047800     2.24115101     2.39730503     0.01107889     2.64226971    -0.31154377
Ti      1.49114402     7.03688498     2.40714000    -0.57810710    -2.22330598    -0.25318331
Ti      1.44434602     2.30041500     2.34679601     0.42017523     2.28680273    -0.82963822
Ti      2.96800898     4.63609299     0.03915298    -0.07039992     0.55926040     0.14726462
Ti      2.99069502     0.00587800     4.61305600    -0.66369042    -0.83116751    -0.00509644
Ti      0.02958799     4.70170700     4.58236499    -0.00176403     0.54718958     0.22378916
Ti      5.91537497     0.02544300     0.06572900     1.08487198    -1.38822293     0.09751967
O       4.48249099     5.59034198     0.89647902    -0.34938940    -0.34945059    -0.67482433
O       4.52057402     0.93700601     0.89446899    -1.29164763    -0.91552570    -0.42778467
O       1.49271800     5.52539002     0.89510702     0.16407552    -0.10943210    -0.51705984
O       1.46943098     0.92411001     0.88439298     0.49319819    -0.75337850    -0.49053530
O       4.44240899     8.29069999     3.61488499    -0.46948310     2.27131800     2.42053820
O       4.46787099     3.68082598     3.76283200    -0.12065729    -0.27303069    -0.35195330
O       1.40597199     8.24359300     3.77007903     0.92181899     2.40394224     1.45525367
O       1.48687102     3.78535299     3.71742499     0.18973489    -1.07922944    -0.38779501
O       2.97028201     6.08919801     3.27828402     0.46425064     0.02183819    -0.62888564
O       3.02109901     1.43111098     3.19538200    -0.84378521    -1.43936348     1.11718408
O       0.05470301     6.00960398     3.04184001    -0.83324239    -0.49190364     1.41149039
O       0.00865702     1.31756102     3.29077599    -0.03975493     0.74441666    -1.05676801
O       2.89396597     7.82215698     1.34280997     0.88667354     1.41736948    -0.81594452
O       2.88625703     3.14775499     1.38072600     0.53463025    -0.05894025     0.44961155
O       0.05430602     7.91492799     1.49918000    -0.89188234     1.07502362    -1.49444784
O       0.00192202     3.33545998     1.43791800     0.15364661    -1.97075670     0.91282501
