# total energy = -39035.14198701 eV

CRYSTAL
PRIMVEC
        5.93200024     0.00000000     0.00000000
        0.00000000     9.29399984     0.00000000
        0.00000000     0.00000000     9.29399984
PRIMCOORD
46 1
Ti      4.48967600     7.05126400     6.86123999    -1.42608064     0.37017471    -0.05345171
Ti      4.46513498     6.75945597     2.44895802     0.44132154     0.47714653    -0.63836427
Ti      4.43402603     2.16264301     7.19187602     0.63178019    -0.30781027    -0.71885937
Ti      4.22796499     2.67006700     1.98746100     0.20550578    -0.87326240     1.13295600
Ti      1.47121499     6.90501602     7.16860799     0.87951198    -0.16160392    -0.81819655
Ti      1.51796701     7.16698400     2.17567199    -0.98761688    -0.68623412     0.85185359
Ti      1.48879802     2.41858499     6.72113201    -0.63004598    -0.35735005     0.71197807
Ti      1.32704499     2.05893099     2.67856099     0.36610440     0.27319550    -0.94520395
Ti      2.92839001     4.66963399     4.56038202     0.55417707     0.02697345     1.42720113
Ti      2.94442800     4.69124099     9.06993503     0.44114439     0.54588166    -0.36509396
Ti      3.02764599     9.24921398     4.61649798     0.23698201    -0.29714636     0.13839534
Ti      2.98178701     0.03458798     0.10561600     0.45373354     0.35948226    -1.70594506
Ti      5.92444100     4.64195199     4.61053802    -0.45810262    -0.18246869     1.22902736
Ti      0.07496801     4.76227600     9.20113003    -0.64752537    -0.36464221     0.37709767
Ti      0.00548598     9.15101302     4.86617799     0.10144600     0.18926129     0.14365221
Ti      0.01521099     9.28334401     0.09326802    -0.45556057     0.94994507    -1.84258948
O       4.41185001     5.66690498     5.49005701     0.70301906    -0.76447873    -0.19551370
O       4.44074102     5.38642998     0.95974502    -0.66487570     0.50562099     0.95203769
O       4.52458302     0.66127899     5.85899400    -0.21076626     0.40537879    -2.02542275
O       4.42299400     1.05445499     0.77287798     0.28518404     0.63865481     0.49272022
O       1.55657700     5.49308603     5.64724203    -0.74789305    -0.42768054    -0.68901554
O       1.49507702     5.62883698     0.83818999     0.65663197    -0.36413185     0.06128330
O       1.61501902     1.04990402     5.25879502    -1.32114874     0.27386321     0.02605557
O       1.46256400     0.98300702     1.00776902    -0.29020232    -0.50642138    -0.08985932
O       4.44836101     8.46703402     8.40957500    -0.35478203    -0.16740330     0.03459755
O       4.60216998     8.33127201     3.82687498    -0.11576319     0.34930866    -0.58682135
O       4.54983700     3.73349901     8.43654103    -1.16460578    -1.07908288     0.36074262
O       4.41072101     3.72002399     3.64375500    -0.00768246     0.68246513     0.23690488
O       1.52071000     8.23970000     8.41483201    -0.07373361     1.17431092     1.23471310
O       1.48977202     8.33469499     3.80972499    -0.03311119     0.39377565    -0.96743346
O       1.39701101     4.00774602     7.98125200     0.78491772    -0.42789729     2.08663302
O       1.52024998     3.59827099     3.87005098    -0.71622656     0.06793911    -0.35407909
O       3.07033303     6.16570502     7.94892202     0.47275766    -0.46097686    -0.18176858
O       2.88780402     6.09758398     3.24477302     0.08042285    -0.01293060    -0.64060679
O       2.85322700     1.33036801     7.83409601    -0.12385343     0.75072949     0.37151760
O       3.11007498     1.45398900     3.07455300     0.27780291     0.07438153     0.02248945
O       5.77085201     6.16791402     7.97445202     0.72314514    -0.41968801     0.07818728
O       0.06873499     6.03500100     3.18558000    -0.11459205    -0.15418834     0.11542175
O       0.17570701     1.22879201     7.74460399    -0.30010776     1.26574299     0.44743099
O       3.00391001     7.86921698     5.97529599    -0.78958942    -0.07368296     0.63057691
O       2.96262799     8.06775999     1.54267498     0.74616424    -0.87602634     0.03635156
O       3.09536099     3.13440999     6.10086599    -0.04458603     0.37487469    -0.36103213
O       0.15726201     7.81220501     6.11149902    -0.09366275     0.11406935    -0.10768015
O       5.81467799     7.94079698     1.35157400     0.55828081    -1.31477368     1.43185174
O       5.73357999     3.20434499     6.07998699     1.15846804    -0.01275628    -0.75717396
O       0.03177302     3.12077801     1.66511601     1.01361357     0.02946100    -0.58756465
