# total energy = -19941.99813018 eV

CRYSTAL
PRIMVEC
        5.93141247     0.00000000     0.00000000
        0.00002334     4.20854430     0.00000000
        0.00000000     0.00000000     9.21521191
PRIMCOORD
24 1
Ti      2.14986566     2.49397944     3.41877789    -0.27473636     2.05875788    -3.25170391
Ti      3.78157025     1.71456486     5.79643412     0.27473636    -2.05875788     3.25170391
Ti      5.11546965     1.71456633     1.18879127    -0.27210252    -2.05888361     3.25365050
Ti      0.81596627     2.49397817     8.02642079     0.27210252     2.05888361    -3.25365050
Ti      2.14985399     0.38970739     1.18882822    -0.27473636     2.05875788     3.25170391
Ti      3.78158192     3.81883706     8.02638385     0.27473636    -2.05875788    -3.25170391
Ti      0.81595459     0.38970582     5.79639713     0.27210252     2.05888361     3.25365050
Ti      5.11548132     3.81883863     3.41881483    -0.27210252    -2.05888361    -3.25365050
O       1.87733776     1.48190001     4.70245212     1.63136068    -1.94843643     2.69676657
O       4.05409815     2.72664434     4.51275990    -1.63136068     1.94843643    -2.69676657
O       1.08841971     1.48191697     0.09487577    -1.63115036    -1.94986880     2.69743120
O       4.84301630     2.72662738     9.12033593     1.63115036     1.94986880    -2.69743120
O       4.05408653     0.62237214     0.09484586    -1.63136068     1.94843643     2.69676657
O       1.87734939     3.58617216     9.12036585     1.63136068    -1.94843643    -2.69676657
O       4.84300463     0.62235523     4.70248198     1.63115036     1.94986880     2.69743120
O       1.08843123     3.58618917     4.51272998    -1.63115036    -1.94986880    -2.69743120
O       0.21551625     2.55987521     2.48925865     1.46133562    -0.44639433     1.50350841
O       5.71591967     1.64866914     6.72595336    -1.46133562     0.44639433    -1.50350841
O       3.18122912     1.64862989     2.11837666     1.46324903     0.44695971    -1.50330452
O       2.75020680     2.55991445     7.09683520    -1.46324903    -0.44695971     1.50330452
O       0.21550458     0.45560301     2.11834720     1.46133562    -0.44639433    -1.50350841
O       5.71593134     3.75294129     7.09686461    -1.46133562     0.44639433     1.50350841
O       2.75019518     0.45564225     6.72598272    -1.46324903    -0.44695971    -1.50330452
O       3.18124074     3.75290209     2.48922924     1.46324903     0.44695971     1.50330452
