# total energy = -39034.60987170 eV

CRYSTAL
PRIMVEC
        5.93200024     0.00000000     0.00000000
        0.00000000     9.29399984     0.00000000
        0.00000000     0.00000000     9.29399984
PRIMCOORD
46 1
Ti      4.44733198     6.99382800     7.00187001     0.28530720     0.47293558     0.60774782
Ti      4.32938900     6.87410900     2.43157798     0.18320891     0.50558191    -1.30041972
Ti      4.50006100     2.35888602     6.89223200     0.17263730    -0.12297848     0.64149433
Ti      4.39506302     2.55724901     2.26471099     0.20707055    -0.84388702    -0.65248349
Ti      1.49637298     6.95894500     6.93778500     0.13602889    -0.49115750     0.40749146
Ti      1.38298199     7.07956498     2.36625798    -0.04633772    -0.67335777    -1.68698111
Ti      1.57380600     2.06180998     6.95612401     0.47335955     0.01872715     0.69288299
Ti      1.58434499     2.28685102     2.31199297    -0.42088717     0.91354954     1.13809847
Ti      2.81257798     4.49486098     4.74429101    -1.27968608    -0.03416946    -0.86407122
Ti      2.98480502     4.76025602     9.20216700    -0.13848738     0.58296623    -0.58669922
Ti      3.07570200     9.22882700     4.57591099     1.03802132     0.24557875    -0.06962319
Ti      2.96147200     9.26298201     9.28615098     1.72637249    -0.09068798     0.67560903
Ti      5.68609099     4.73574400     4.71856701     0.98235435     0.08894760    -0.77436539
Ti      0.04662501     4.68874999     0.09764299     0.40780488     0.45077266    -0.28728335
Ti      0.08745400     9.10486702     4.74072203    -1.51393501     0.16498132     1.25960345
Ti      0.03245502     0.04706301     0.02044101    -1.33638870    -0.57675445     0.68000562
O       4.23015499     5.45165198     5.54673999     1.45737997     1.05489317     1.06571957
O       4.46490003     5.55335598     0.99637102    -0.70687314    -0.51838087    -0.42294431
O       4.45216299     0.79197202     5.58503999     1.28618815     0.51327928    -0.29804445
O       4.29644402     1.15363101     0.67315199     1.17217382     0.02554186     1.95987039
O       1.49393897     5.44184902     5.65316902    -0.93509925     0.63813236     0.01100073
O       1.50844801     5.86151701     0.74303598     0.03125357    -1.73734184     0.84785372
O       1.68516400     0.64565398     5.68392200    -1.69222077     1.30800602     0.09853422
O       1.51901901     1.05956002     0.96874802    -0.30584106    -1.28631670    -1.33245902
O       4.55249998     8.45986599     8.37667600    -0.81600648    -0.54393739    -0.52268824
O       4.61611100     8.18970402     3.87039801    -0.44629688     1.20954688    -0.79893307
O       4.44252303     3.71137898     8.39828199     0.02092853     0.34213785     0.19885588
O       4.28323702     3.84261499     3.70450698     1.14917118    -0.60765346    -0.83185888
O       1.55981202     8.39694798     8.36462801    -0.91281292     0.20494297    -0.38581088
O       1.44213898     8.60680698     3.61157102     0.20467454    -0.31496771    -0.90005408
O       1.55316899     3.95497102     8.31411799    -0.35692839    -1.44040709     0.55004967
O       1.56760299     3.65704502     3.60034098    -0.39292847     0.38216172     0.75343378
O       3.09125701     6.12478502     7.89084900    -0.88823291    -0.09173648     0.04333185
O       2.90782698     6.19638101     3.33990200    -1.12530079    -0.27596380    -0.29903432
O       3.11769000     1.33735500     7.78282498    -1.69772807     0.53355681    -0.03320298
O       3.21711600     1.43040701     3.28883502    -0.67139576     0.20541631    -0.84609817
O       5.89138700     6.15345298     7.93579599     0.23020715    -0.14960535    -0.70797074
O       5.87712700     6.01278598     3.18120899     1.02442661     0.26669060     0.49912124
O       0.00143000     1.37410001     7.95838001     0.77108544     1.64876731    -1.99732058
O       3.02291901     7.79824499     5.93621001    -0.62217968    -0.43462870     0.64310590
O       2.93649902     7.91836997     1.40062000     0.24486039     0.31157771     0.48960764
O       2.91417800     3.04744701     6.00199901     0.11681812     0.47509633    -0.07186416
O       5.92493297     7.67666901     5.92027002     1.07130298     0.40075363     0.31349961
O       5.82994597     7.87831702     1.31452799     0.70117583     0.64677435     1.10611444
O       5.85431300     3.32314402     5.85424098     0.31931982    -2.11066025     1.57055509
O       5.92976299     3.47839901     1.59128801     0.89243512    -1.26672386    -0.58337632
