# total energy = -4989.50448443 eV

CRYSTAL
PRIMVEC
        3.71776174     0.00000000     0.00000000
        0.91513308     3.60337117     0.00000000
       -2.31648126    -1.80171191     4.78278418
PRIMCOORD
6 1
Ti      0.68622909     2.70266637     1.19569597     0.00090220    -0.00090220     0.00000000
Ti      1.63018464    -0.90100698     3.58708790    -0.00090220     0.00090220     0.00000000
O       0.22882225     0.90083766     0.77907640    -0.00010490     0.00025968    -0.30758427
O       2.08759131     0.90082164     4.00370746     0.00010490    -0.00025968     0.30758427
O      -0.22879569    -0.90081700     3.17046834     0.00025968    -0.00010490    -0.30758427
O       2.54520925     2.70247625     1.61231553    -0.00025968     0.00010490     0.30758427
