# total energy = -19074.26668209 eV

CRYSTAL
PRIMVEC
        7.60600008     0.00000000     0.00000000
        0.00000000     7.60600008     0.00000000
       -1.89786986    -1.89786986     4.85670466
PRIMCOORD
22 1
Ti      3.52758202     6.76126899     1.21198497     1.66578236     0.85401691     1.39584522
Ti      4.09441197     2.90698998     1.06700300     0.14796653    -0.93516507     3.72941197
Ti     -0.10864999     6.64168001     1.34351600    -0.76473892     0.37934019     0.34710394
Ti      0.08044299     2.88707497     1.24643701    -1.26810634     0.32147826    -2.10534166
Ti      5.86737823     2.91778123     3.62242979    -1.10604888    -1.17872088    -1.25476077
Ti      5.76564925    -1.03952680     3.89026682    -0.94204766     0.78921481    -1.50819116
Ti      1.99013520     2.81843322     3.88632683     1.50973768     1.79184000    -1.64342198
Ti      1.58423921    -0.79880380     3.77207482     2.69996991    -0.12927280     0.68888904
O       3.68792299     4.85867500     0.86309900    -0.03136644    -1.39903751     0.16917068
O       3.31095802     1.18063302     0.98853200    -0.03797598     0.59216333    -0.13868921
O       0.12801798     4.85761601     1.23823100    -0.49839002    -2.04847784    -1.43071557
O       0.47431099     0.97231203     0.88048400    -0.73933667     0.16528934     0.51207344
O       5.30701323     4.71063825     4.21551779     0.72340303     0.74463443     0.02267997
O       5.65867622     1.08904720     4.02887279     0.24475163     0.22191122     0.88896542
O       2.07438122     5.13312320     4.33492081     0.24028459    -1.90427155    -1.73742026
O       2.28057022     0.96487724     4.08435782    -0.07340888    -0.34525506    -1.82979541
O       3.65968921     3.02118823     3.00060583    -0.63057100     0.19313106     0.57022513
O       0.28742220     2.95572625     3.06891679     0.51814510    -0.02022662     2.51125627
O       5.39524602     6.62660402     1.87770901     0.30331958     0.25800438     0.53647681
O       5.87982601     2.57281698     1.47847800    -0.49541088     0.61999733     0.87389361
O       1.80246201     6.41730600     1.83350302     0.86598489     1.12948938     0.29042215
O      -0.09181977    -0.68029778     3.36877682    -2.33194387    -0.10008331    -0.88807710
