# total energy = -4989.54218922 eV

CRYSTAL
PRIMVEC
        3.90939894     0.00000000     0.00000000
        0.96230489     3.78911195     0.00000000
       -2.43588751    -1.89458366     5.02931944
PRIMCOORD
6 1
Ti      0.72160172     2.84197907     1.25732978    -0.00006428     0.00006428    -0.00000000
Ti      1.71421478    -0.94745064     3.77198934     0.00006428    -0.00006428    -0.00000000
O       0.24061722     0.94727259     0.81923498    -0.00053145    -0.00052399    -0.86361845
O       2.19519911     0.94725575     4.21008414     0.00053145     0.00052399     0.86361845
O      -0.24058928    -0.94725086     3.33389454    -0.00052399    -0.00053145    -0.86361845
O       2.67640560     2.84177915     1.69542458     0.00052399     0.00053145     0.86361845
