# total energy = -19960.52118398 eV

CRYSTAL
PRIMVEC
        7.60600008     0.00000000     0.00000000
        0.00000000     7.60600008     0.00000000
       -1.89786986    -1.89786986     4.85670466
PRIMCOORD
24 1
Ti      3.75007200     6.59382201     1.27625101    -0.28295155    -0.58666065    -1.37992726
Ti      3.75343698     2.87271199     1.15895602    -0.71512021     0.57779420     0.98960795
Ti      0.02069501     6.63714602     1.28034002     0.03512282     0.10817226    -0.86180710
Ti     -0.09071601     2.85650102     1.19241298     1.16338810     0.25094028    -0.10135884
Ti      5.70145523     2.89800921     3.60638683     0.83411657     0.56137076     0.67781272
Ti      5.73824220    -0.95208978     3.63939384     1.88529603    -0.48624233    -0.03191589
Ti      1.90672924     2.82867624     3.57194379    -0.98235178     1.04634990     0.66324793
Ti      2.05274523    -1.00017379     3.73318182    -2.26646967    -1.14296916    -0.45971727
O       3.52852998     4.69689699     0.79088001     1.06924892     1.34606891    -0.27728175
O       3.60279800     0.91624501     0.87747399     0.88360158     0.10728806    -0.15362064
O      -0.01034399     4.81222599     0.66013100    -0.49358746    -1.24430023     0.35223792
O       0.03296499     0.97232197     0.71095101    -0.40930023     0.89060887     0.70354639
O      -1.56520476     4.77511124     4.10985580    -0.76563547    -0.38985600    -0.80971602
O       5.96685223     0.93530020     3.91914879    -1.54440028     0.43770425     0.60248631
O       1.70208222     4.73024522     4.05776179     0.84369213     0.09696534     1.18287270
O       1.83472420     0.91295622     4.12695082     0.84683608    -0.33004107    -1.09750870
O       3.75405422     2.97573222     3.20610980     0.77534781    -0.74815556     0.15339156
O       3.85325124     6.22136420     3.31336281    -0.16207598     1.31773740    -0.76446099
O       0.00999325     2.78683325     3.14679580    -1.42674990    -0.25476608    -0.35325196
O       0.04605922    -1.01199778     3.18160381     0.06082050     0.25865050     0.26478490
O       5.78596298     6.70020998     1.52893198    -2.30360670    -0.04027506     0.65653452
O       5.64512701     3.07055703     1.54273801    -0.00382246    -0.59264181     0.03558280
O       1.89344298     6.67459399     1.67176698     1.81433484     0.14977967     1.04282055
O       1.76812598     3.18519301     1.72832301     1.14426603    -1.33352218    -1.03435981
