# total energy = -19072.06663827 eV

CRYSTAL
PRIMVEC
        5.17600016     0.00000000     0.00000000
        0.00000000     5.50899976     0.00000000
        0.00000000     0.00000000     9.26300011
PRIMCOORD
22 1
Ti      1.71508199     3.45541198     3.24803302     0.76685803    -2.24850151     0.60289203
Ti      3.95547400     2.17071498     6.03892299    -2.25538307    -0.09156319    -1.50125329
Ti      4.45744402     2.17171100     1.28677598    -1.56719723    -0.94084233     1.52267265
Ti      1.00509699     3.30320599     8.15875599    -1.77711965    -0.43153231     2.04442809
Ti      1.80935201     0.51674698     1.31470098    -1.17663109     2.25037173    -0.60902232
Ti      3.29209899     5.31002202     7.90832100    -0.25117887     1.29237217     0.37587357
Ti      0.95039202     0.01579102     5.99552702    -0.71779005     0.26771493    -1.19881509
Ti      4.19631701     4.92263200     3.54645602     1.55901983    -0.12080667     0.61509244
O       3.36860098     3.26198002     4.51724301    -0.16082205     1.16058508    -0.20749504
O       0.68572201     1.97156103     0.26931799     3.03745329     0.14092119    -2.00921836
O       4.40272498     3.82972900     8.36022398    -0.49912690    -0.14027147    -0.39581094
O       3.38916899     0.84461600     0.22611299     0.47547788     0.76917048    -1.41172539
O       1.66914602     4.89896899     9.14978401    -0.62188118    -2.72514153    -2.26453826
O       4.18713801     0.78736802     4.75322902     0.52612221     0.13538971     0.37638470
O       0.91147098     4.87868102     4.15181098    -0.45166869     0.27333716     3.48385070
O       0.03702002     3.62655499     2.35913002    -0.51685903    -1.31753274    -0.56497648
O       4.89280302     1.00505799     7.18895301     1.08232762    -0.78532550     0.35583850
O       2.69803402     2.02903200     2.16190000    -1.18601870     1.26112091     0.79906779
O       1.68951601     3.89407901     6.60807001     1.28625397     0.70718836    -0.39456807
O       5.08920303     0.66274799     2.11673202     0.52204109     0.14017094     0.80661732
O       2.38902700     1.14527901     6.49036998    -0.13527659     0.11860632     1.02485676
O       2.51762501     4.88394999     2.56633599     2.06139918     0.28456800    -1.45015106
