# total energy = -39028.35480740 eV

CRYSTAL
PRIMVEC
        5.93200024     0.00000000     0.00000000
        0.00000000     9.29399984     0.00000000
        0.00000000     0.00000000     9.29399984
PRIMCOORD
46 1
Ti      4.42663300     6.89425298     6.95259900     0.02312965    -0.70560379    -3.21959005
Ti      4.52978700     6.94616601     2.50205497    -2.04132965     1.16416818     0.26476485
Ti      4.38479100     2.22733499     7.37088499    -0.15617838     1.98937150    -0.54698877
Ti      4.24243402     2.36181999     2.15185801     0.98775649    -0.75553977    -0.41823045
Ti      1.52980402     6.57584898     6.97371201    -1.46961226     2.43804485    -1.41601811
Ti      1.52371202     7.24919698     2.10254298    -1.19316123     0.23868202     1.69268074
Ti      1.53857100     2.64052902     6.98815802    -1.09367081     0.47990250    -1.63498850
Ti      1.24536399     1.76949300     2.24971701    -2.80623879    -0.41269512    -3.31988137
Ti      3.02070800     4.54200999     4.51583201     1.27692755     0.90070739     0.48783564
Ti      2.84451701     5.12492498     0.14688701     1.88435912    -3.00946297     1.37310329
Ti      3.07437499     0.16718699     4.81826099    -0.92583428    -0.93028872     0.76708711
Ti      3.15594702     9.10423698     9.04932997    -2.80349079     0.63092504     1.24840706
Ti      0.08484600     4.60315801     4.41825300     0.20364224    -0.12016132     1.76647245
Ti      5.89947002     4.58229202     0.05147900    -1.43707982    -0.95126276     0.25910456
Ti      5.93135502     9.22011802     4.99488200     1.03348564     1.53949795    -2.27477357
Ti      0.00630202     9.25595501     8.94352897     3.36613116     1.32890781     2.44989995
O       4.36648100     5.89105902     5.14002198     1.25038295    -1.69195671     1.75206553
O       4.61715199     5.65003000     1.09817699    -1.13429683    -1.20366496    -1.86579164
O       4.45899197     1.02303499     5.89325002    -0.09112456    -0.76798777    -1.75380642
O       4.37448200     0.90922002     0.70454802    -0.39810128     0.38153231     1.14411356
O       1.75966200     5.37085000     5.59807802    -1.93666901     1.70787519     0.43146341
O       1.31456598     5.34215600     1.15304400     0.51467179     1.47798609    -0.30204997
O       1.70049702     1.18350899     5.74820698    -1.27331952    -2.03034950    -1.37230985
O       1.59701000     0.51051603     0.85658101     0.88286625     3.69915059     1.49376213
O       4.65824801     8.52781399     7.95993002    -2.03943347    -0.67951531     0.32776924
O       4.45115999     8.53185601     3.84559299    -0.05995892     1.07092246    -0.36764372
O       4.08265302     3.76027898     8.65917198     1.26774099     0.27038271     0.77742938
O       4.63271298     3.65815402     3.73945400    -1.68587014    -1.28371680    -1.36118006
O       1.39601901     8.17304298     8.48668300     1.00413520    -0.40598197    -2.60937526
O       1.20267802     8.35888098     3.82016401     1.49000317     1.16829891    -1.00049554
O       1.48796398     3.85391203     8.43241498     0.46313067     1.35041793     1.26926463
O       1.55980800     3.78263899     3.60597100    -0.40381453     0.04737979    -0.09233452
O       2.94343198     6.25481699     8.10708501     1.58541890     0.78830772    -0.97620272
O       2.93990501     6.10591397     3.14141000    -0.25215975     0.62738900    -0.68991439
O       2.83507701     1.39333698     8.07303700     0.43686916     0.95652375    -1.54055031
O       2.63626200     1.54421700     3.16029602     5.13996931    -0.96901186     2.46327072
O       5.87807602     5.89870399     7.89911898    -0.14323030    -0.01734287    -0.33889003
O       5.91180700     6.08129898     3.10933302     2.08814432     0.27195545     0.69037411
O       0.12033401     1.75564702     8.08185601    -0.80895446    -0.80791702    -0.31706547
O       3.08697300     7.84031400     5.97372200    -1.68650675     0.74887084     0.73443743
O       3.02408399     7.70052601     1.18938598     0.52392443    -0.00406029     0.05083818
O       3.07592802     3.40633999     6.14226401     0.54101121    -1.11466491     0.72645621
O       5.87518100     7.90292001     6.00783198     1.26981356    -3.00177640     2.38839220
O       0.03848098     8.33443802     1.26544098    -1.17771172    -4.20435584     2.83090262
O       0.03356598     3.46630599     6.02500002     0.51794147    -0.67636622     0.83985064
O       5.93116298     3.00498001     1.52338298    -0.73370827     0.46648339    -0.81166492
