# total energy = -19961.57801188 eV

CRYSTAL
PRIMVEC
        7.60600008     0.00000000     0.00000000
        0.00000000     7.60600008     0.00000000
       -1.89786986    -1.89786986     4.85670466
PRIMCOORD
24 1
Ti      3.78566901     6.63241697     1.24335301     0.23630529     0.33112581     0.95860634
Ti      3.78531197     2.89546799     1.15850002     0.19851212    -0.35975814     1.08222452
Ti      0.03590399     6.61838298     1.18568402    -0.28568823    -0.81077763     0.38467677
Ti      0.06447601     2.84973300     1.13464000    -0.05156169     0.62692080     0.22408484
Ti      5.74253923     2.78791224     3.54094782    -1.60765792     0.87372288     0.22322609
Ti      5.72519322    -1.02501575     3.67583780    -0.97998302    -0.45551249    -0.69740453
Ti      1.81090122     2.91422325     3.66820484     2.07949744     0.19306935    -0.50054872
Ti      1.81358320    -0.92273378     3.71718580     0.91174746    -0.30488718    -0.51884315
O       3.69111700     4.74729599     0.78064201     0.21102491     0.69984477    -0.06355101
O       3.71415499     0.93933597     0.80405599     0.26447020     0.65632652     0.36213359
O       0.02983898     4.67408998     0.80421803     0.31589794     0.56434681    -0.77044318
O       0.03385798     0.84530202     0.80557399    -0.00657303     1.12226612     0.32964871
O       5.72241721     4.67433325     4.08450181    -0.06479825    -0.10485862     0.12830452
O       5.61624520     0.89910025     4.06285380     0.74832551     0.37927977    -0.51296870
O       1.98586823     4.78499924     4.14397281    -0.05885154    -0.39058363    -0.19063837
O       1.84364825     1.01263824     3.99300283    -0.02697320    -0.58211340     0.39266416
O       3.83265820     2.92459925     3.16907782     0.36756144    -0.43009481     0.16986411
O       3.78588322    -0.95287079     3.24215582     0.42290960    -0.07558763     0.11571228
O       0.10428824     3.07053025     3.11244781    -2.04822073    -0.81593243     0.62117361
O      -0.02470178    -1.11684277     3.26616480     0.58719904     0.49092713     0.26893595
O       5.76323498     6.58780199     1.73034298    -0.81704469     0.11361555    -0.81865009
O       5.71079002     3.03161302     1.60649900     0.50172551    -1.09816845     0.09681493
O       1.90071499     6.62686400     1.75220700    -0.27985980    -0.00422998    -0.94771078
O       1.95108700     2.95177298     1.61752102    -0.61796436    -0.61894112    -0.33731163
