# total energy = -19866.65761072 eV

CRYSTAL
PRIMVEC
        7.22017474     0.00000000     0.00000000
        0.00002245     2.56148311     0.00000000
        0.00000000     0.00000000    11.48668904
PRIMCOORD
24 1
Ti      2.61697921     1.51793243     4.26147981    -1.11693442     0.75485894    -0.74000927
Ti      4.60321769     1.04355043     7.22520958     1.11693442    -0.75485894     0.74000927
Ti      6.22694342     1.04355126     1.48181900    -1.11513748    -0.75534822     0.74225153
Ti      0.99325352     1.51793171    10.00487049     1.11513748     0.75534822    -0.74225153
Ti      2.61696828     0.23719093     1.48186506    -1.11693442     0.75485894     0.74000927
Ti      4.60322867     2.32429204    10.00482442     1.11693442    -0.75485894    -0.74000927
Ti      0.99324255     0.23719005     7.22516351     1.11513748     0.75534822     0.74225153
Ti      6.22695440     2.32429291     4.26152587    -1.11513748    -0.75534822    -0.74225153
O       2.28523868     0.90194167     5.86156963     9.90161068    -1.32071345     4.82739556
O       4.93495826     1.65954125     5.62511975    -9.90161068     1.32071345    -4.82739556
O       1.32490649     0.90195207     0.11826192    -9.90346702    -1.32057281     4.82699781
O       5.89529051     1.65953085    11.36842712     9.90346702     1.32057281    -4.82699781
O       4.93494728     0.37879964     0.11822462    -9.90161068     1.32071345     4.82739556
O       2.28524966     2.18268323    11.36846442     9.90161068    -1.32071345    -4.82739556
O       5.89527953     0.37878929     5.86160688     9.90346702     1.32057281     4.82699781
O       1.32491732     2.18269363     5.62508250    -9.90346702    -1.32057281    -4.82699781
O       0.26233912     1.55803923     3.10284133     2.62895036    -0.70625505     6.70112805
O       6.95785782     1.00344364     8.38384800    -2.62895036     0.70625505    -6.70112805
O       3.87243604     1.00341990     2.64053985     2.63094939     0.70656975    -6.70097327
O       3.34776090     1.55806302     8.84614934    -2.63094939    -0.70656975     6.70097327
O       0.26232815     0.27729767     2.64050319     2.62895036    -0.70625505    -6.70112805
O       6.95786880     2.28418524     8.84618600    -2.62895036     0.70625505     6.70112805
O       3.34774997     0.27732142     8.38388462    -2.63094939    -0.70656975    -6.70097327
O       3.87244697     2.28416145     3.10280467     2.63094939     0.70656975     6.70097327
