# total energy = -19074.89635679 eV

CRYSTAL
PRIMVEC
        5.17600016     0.00000000     0.00000000
        0.00000000     5.50899976     0.00000000
        0.00000000     0.00000000     9.26300011
PRIMCOORD
22 1
Ti      1.94390199     3.42842298     3.28844502     0.06756656     0.79595213     0.03740956
Ti      3.61039000     2.26218702     5.99372999    -0.33633693    -0.06162242    -0.75558759
Ti      4.39119299     2.26457599     1.19979400    -0.24411297     0.08485595    -1.30736736
Ti      0.73260500     3.30091201     8.14620401    -0.59839209    -0.00039286    -0.13189867
Ti      1.78959099     0.52360999     1.30265002     0.99416806     0.89877110    -1.62648303
Ti      3.15658701     4.98607702     8.00679401     1.74193101     0.56748022    -0.19753356
Ti      0.53238999     0.15817097     6.05482900     1.32539183     0.62066865    -1.44818288
Ti      4.47504801     5.01869201     3.31351701     0.57546092    -0.18960196     1.65142506
O       3.52867302     3.42973000     4.35540198     0.00419913    -0.02922060     1.65950784
O       0.87791601     2.01509199     0.14884899     0.17819834    -0.67124227     0.60287686
O       4.28561901     3.74349702     9.17011098    -0.54751816    -0.50518956    -0.38382188
O       3.43352700     0.82746102     0.19874702     0.67947314     1.50044674    -0.76395062
O       1.73365098     4.82263300     9.06353701    -3.16657800    -1.34074312     0.83792232
O       4.28350002     0.89693898     4.72056498     0.32962583    -0.88549828     0.26778744
O       1.02786500     4.83554001     4.37857301    -0.47766461    -0.80331757     0.71054236
O       0.27325999     3.58299899     2.32817701    -0.50647152    -0.93187895     0.40761359
O       0.14596598     1.86975500     6.78583001    -1.04021525     0.71802119     0.29562015
O       2.66031898     1.91787298     2.34457802     0.28904095     0.76733728    -0.21106065
O       2.28605900     3.49121299     7.08252498     0.86276587    -0.92277672    -1.15781061
O       0.07242399     0.65028999     1.99714902    -0.51536574     0.20763131     1.15590285
O       2.42272601     0.59230302     6.56087602     0.19236950     0.80044642     0.29590812
O       2.78625401     4.81566400     2.35732902     0.19246437    -0.62012666     0.06118045
