# total energy = -19903.21227328 eV

CRYSTAL
PRIMVEC
        6.70259949     0.00000000     0.00000000
        0.00003674     7.13359276     0.00000000
        0.00000000     0.00000000    11.99617928
PRIMCOORD
24 1
Ti      2.42939171     4.22736047     4.45049704     0.05900298    -0.91340813     0.62041205
Ti      4.27324452     2.90623236     7.54568258    -0.05900298     0.91340813    -0.62041205
Ti      5.78057412     2.90623481     1.54754484     0.05907549     0.91352203    -0.62066428
Ti      0.92206211     4.22735829    10.44863492    -0.05907549    -0.91352203     0.62066428
Ti      2.42937348     0.66056423     1.54759294     0.05900298    -0.91340813    -0.62041205
Ti      4.27326275     6.47302880    10.44858681    -0.05900298     0.91340813     0.62041205
Ti      0.92204388     0.66056157     7.54563448    -0.05907549    -0.91352203    -0.62066428
Ti      5.78059235     6.47303146     4.45054514     0.05907549     0.91352203     0.62066428
O       2.12142799     2.51185935     6.12155859     1.39533049     1.29871765    -0.01228114
O       4.58120824     4.62173355     5.87462103    -1.39533049    -1.29871765     0.01228114
O       1.22993681     2.51188808     0.12350739    -1.39507312     1.29895779    -0.01297816
O       5.47269948     4.62170482    11.87267189     1.39507312    -1.29895779     0.01297816
O       4.58119001     1.05493710     0.12346847    -1.39533049    -1.29871765    -0.01228114
O       2.12144622     6.07865572    11.87271081     1.39533049     1.29871765     0.01228114
O       5.47268125     1.05490837     6.12159751     1.39507312    -1.29895779    -0.01297816
O       1.22995491     6.07868452     5.87458211    -1.39507312     1.29895779     0.01297816
O       0.24354326     4.33905551     3.24046738     0.49174089    -0.28256717     0.32442706
O       6.45909297     2.79453731     8.75571225    -0.49174089     0.28256717    -0.32442706
O       3.59484838     2.79447083     2.75766057     0.49152929     0.28277672    -0.32455536
O       3.10778785     4.33912200     9.23851885    -0.49152929    -0.28277672     0.32455536
O       0.24352503     0.77225906     2.75762226     0.49174089    -0.28256717    -0.32442706
O       6.45911120     6.36133376     9.23855715    -0.49174089     0.28256717     0.32442706
O       3.10776962     0.77232555     8.75575048    -0.49152929    -0.28277672    -0.32455536
O       3.59486661     6.36126728     3.24042907     0.49152929     0.28277672     0.32455536
