# total energy = -19516.26747722 eV

CRYSTAL
PRIMVEC
        5.17600016     0.00000000     0.00000000
        0.00000000     5.50899976     0.00000000
        0.00000000     0.00000000     9.26300011
PRIMCOORD
23 1
Ti      1.81771899     3.22224002     3.43957899    -0.83485268     0.15254232     2.52221586
Ti      3.32408003     2.27673601     5.81668903     0.08595484     1.03498768    -3.00145501
Ti      4.32574901     2.02273098     1.55382099     0.47618494    -0.20060628    -1.19031116
Ti      0.88221298     3.17541900     7.76147098     2.17014428     2.46695537     2.06352111
Ti      2.01505701     0.23827402     1.35376198     0.44004498    -0.48188893    -1.60002097
Ti      3.35398902     5.33156001     7.75032699    -0.21429664    -1.40486389     3.39118400
Ti      0.67632398     0.62557900     6.05638399    -0.75810188    -2.74499097    -4.56801486
Ti      4.44653001     4.97031198     3.29726000     0.91845058    -0.15820518     2.71151185
O       1.63506298     1.99711701     4.96622303    -0.05633006     0.44865998    -1.27250550
O       3.50207599     3.64877398     4.44043299    -0.30775499    -0.92011229     1.09987386
O       0.21945399     2.74226202     0.04034701    -0.01175637    -0.28431964     0.67631068
O       3.54376198     0.88480098     0.21468298    -0.14370801     0.52169014    -1.04386339
O       1.92025200     4.85286098     8.98925899    -0.33860310    -0.98087159    -0.75297689
O       4.26571401     0.85588800     4.89402901    -0.41284630    -0.17609903    -0.81471167
O       0.87086203     4.71158902     4.41441101     0.32525753     0.68483466     0.45009672
O       0.09646700     3.35234402     2.60842500    -0.06207057    -1.07924898    -1.00919410
O       5.02391700     2.00008802     6.89914300    -2.37344560    -0.32086222     0.20507975
O       2.50447601     1.85852099     2.28779301     0.56699068    -0.00668487    -0.04130402
O       2.81169902     3.59598299     7.02552000    -1.21262552     0.38446954     1.25043026
O       0.20062300     0.45870698     1.80361900     0.08718845     0.26439024     0.98515659
O       5.12081200     4.69487802     7.20632103    -0.26477539     0.91051667    -0.14365453
O       2.26600398     0.97356501     6.89854101     1.24656409     0.43469246     1.33517308
O       2.78429002     4.38536098     2.32426698     0.67438698     1.45501482    -1.25254165
