# total energy = -39034.99934923 eV

CRYSTAL
PRIMVEC
        7.60600008     0.00000000     0.00000000
        0.00000000     7.60600008     0.00000000
       -3.79573973    -3.79573973     9.71340985
PRIMCOORD
46 1
Ti      1.80931147     5.01352047     6.11840764     0.11029342     0.70489596     2.04760701
Ti      3.88885101     6.64448502     1.32830702    -0.05376076     1.01595765     1.96301794
Ti      1.85502545     0.92188847     6.15207564     1.37305753    -0.34766264    -1.20703619
Ti      3.94475800     2.67697197     1.17993202    -0.52906278     1.70313176     2.12846669
Ti     -1.95948255     4.86678247     5.94463064     1.15806900    -0.18488810     1.10216034
Ti      0.01095101     6.64048301     1.11818402     0.04619426    -0.55105395     1.48314886
Ti     -1.93527053     1.12096945     5.85820261    -0.67621427    -0.02463992     0.86156722
Ti      0.14826202     2.83649600     1.16094900    -0.23810764     0.69299715    -0.42650246
Ti      3.75197645     0.91320742     8.46660163     0.46132781    -0.32430982    -0.43197326
Ti      5.74851898     3.03933102     3.52089999    -0.78077978    -1.93834974    -0.15150514
Ti      3.76568945    -2.91179157     8.45452861    -0.95983739     0.77381492     0.97033006
Ti      5.80222698    -0.96976002     3.75468902     0.60930977     3.23238207    -1.95157395
Ti     -0.12190455     0.87973643     8.40634665    -0.39605648     0.26448845     0.37828629
Ti      1.86079999     2.70063398     3.59650100     0.72157883    -1.02204037    -0.64349979
Ti     -0.21885755    -2.95708057     8.56644563     1.74335669     0.43636496     0.69649642
Ti      1.92387199    -1.09673398     3.63812497    -0.22560693     1.78113238     0.27861307
O       1.64137146    -0.80300653     5.61355963     0.73977299    -2.84574586     0.75523561
O       3.65694998     0.97417902     0.89802501     0.11775220    -3.10562560    -0.61632425
O      -1.74924657     3.00060646     5.76193564    -0.32832357    -0.42950757    -1.49581541
O      -0.02552799     4.77030499     0.83098799     0.19483698    -0.46989473    -0.83849927
O      -1.75564554    -0.78806156     5.61837562    -0.04955957    -1.35234420     0.84733719
O      -0.08918801     0.94515301     0.81619098     0.95492812     0.48778576    -0.44603103
O       3.74034847     2.79484843     8.90157760     0.13981458     1.15078404     0.02116404
O       5.58838201     4.88130802     4.03042502    -0.24042857    -2.74389028     0.71576376
O       3.92516447    -0.86020455     8.80492560    -0.02890692    -1.99737072     1.26610114
O       5.66414400     1.02243098     3.92573202     0.70444602     1.34615530     0.60969543
O      -0.01266353     2.63679747     9.20229263    -0.05799562     0.03514519    -2.12362813
O       2.25981398     4.26950302     4.55974198    -0.69082199     0.40657924    -1.04783111
O      -0.23061254    -0.87498157     9.12283862     0.24833061     0.44795010    -2.19070695
O       1.70687101     0.78406701     3.78596900     0.79173629     2.17943703     0.69908887
O       1.90646048     0.76269645     8.06958364    -0.40148279     0.44911224     0.50336768
O       3.94523199     2.86260799     3.18491699    -0.39244716    -0.08173720     0.04795752
O       1.93639143    -2.76727655     8.10746464    -0.83763255    -0.29246078    -0.17587381
O       3.88490700    -0.92888203     3.31272499    -0.85175923    -0.61749308    -0.06243566
O      -2.04541353     0.89832246     7.77982364     1.61911862     0.50699628     1.69742160
O       0.03257599     3.00797499     3.16047101    -0.33218639    -0.13571316     0.36636202
O      -1.94290057    -2.86981252     8.29915460     0.61534415    -0.28152125    -0.69780023
O       0.04557899    -1.24093198     3.42581398     0.12483610    -0.11564646    -0.52197784
O       3.92702443     4.76572846     6.52976262    -1.21440472     0.39756520    -0.05356176
O       5.83322899     6.72548100     1.75544101    -1.05696702    -0.38127186    -1.08734153
O       3.73106347     0.93779644     6.31346962     0.29828047     0.97068076    -0.34773746
O       5.74930000     2.93030701     1.43552802     0.49773413     0.27982303     0.89767246
O       0.01679947     4.78815943     6.43265060    -1.04574363    -0.26722591     1.07487399
O       1.91373402     6.48696398     1.78991400     0.44602897    -0.24493058    -2.03833792
O       0.09423842     1.05694647     6.58753264    -2.49986242     1.00307590    -1.43286295
O       1.97054400     3.11552900     1.76238303     0.17180015    -0.51093187    -1.42287936
