# total energy = -19958.70449144 eV

CRYSTAL
PRIMVEC
        5.93400000     0.00000000     0.00000000
        0.00000000     9.29699974     0.00000000
        0.00000000     0.00000000     4.64899994
PRIMCOORD
24 1
Ti      4.41775499     7.03886400     2.40979102     1.48966044    -2.78490556    -1.74401437
Ti      4.49607899     2.22836302     2.28039098    -1.48284856     0.56611110     0.98383505
Ti      1.56209399     6.97307398     2.28635402    -3.04375790    -1.06367683     0.64020184
Ti      1.45184599     2.56213501     2.27206502     1.22386381    -1.57773233    -0.70888606
Ti      2.90401399     4.80097600     0.03498999     1.32125852    -1.99195957     1.45044776
Ti      3.10424498     9.05660500     4.57202699    -3.52462250     3.64902589    -0.17571183
Ti      5.91950399     4.62650700     4.50586702    -1.39259921    -0.87503620     0.84178283
Ti      0.02255099     9.22368001     0.22030501     3.07163381     2.08228991    -0.65735727
O       4.40019398     5.69081803     0.94238102    -0.29962362     0.08473228    -0.46084367
O       4.49253499     0.82427099     0.87248401    -1.35172148    -0.08144024    -0.00547594
O       1.34889498     5.44307798     1.03467599     0.99554334     0.67220257    -0.96185468
O       1.24846301     0.97282803     1.04757198     0.61768257    -1.35851382    -1.70061825
O       4.48311600     8.42913302     3.72145298     0.88864480    -1.50209944    -1.20429128
O       4.40529599     3.68798998     3.83676298    -0.00834760     1.23122566    -0.17958982
O       1.54268303     8.31859202     3.74834402     0.23008914     0.60639491     0.61440929
O       1.44495002     3.70075501     3.71969802     0.19477965     1.25428846     1.25471012
O       2.86613601     5.96298399     3.06997699     2.12022347     0.28903273     1.34192583
O       2.91137802     1.37780801     3.11579401     0.53998997    -0.22540253     0.58041261
O       0.19832902     6.07400199     3.36346801    -2.13019910     0.95131341    -0.91651351
O       5.89419799     1.51518602     3.09046298     0.20647483    -1.18796246     1.76293564
O       2.91065300     7.86397701     1.48477902     2.12769484     1.30350479    -1.16718922
O       2.99098401     3.41833501     1.38168598    -0.60657540    -0.78225740     0.22170502
O       0.02205002     7.77264498     1.35921701    -1.06663514    -0.25175403     1.03144752
O       5.87394399     3.25030600     1.41931498    -0.12060921     0.99261871    -0.84146736
