# total energy = -19517.39305703 eV

CRYSTAL
PRIMVEC
        5.17600016     0.00000000     0.00000000
        0.00000000     5.50899976     0.00000000
        0.00000000     0.00000000     9.26300011
PRIMCOORD
23 1
Ti      1.85772500     3.19064401     3.36420299    -0.19380751     0.63965805     2.10650097
Ti      3.43364099     2.24089600     5.84029599     1.10019782     0.01842170    -1.58865875
Ti      4.23368598     2.20536201     1.49980898     0.94969798    -1.15539171    -2.01975783
Ti      0.87564701     3.41682300     7.79577500    -3.16948283     0.85256116     1.63947508
Ti      1.88912198     0.13777998     1.46429902     0.08589262     0.85489906    -1.46274253
Ti      3.28330200     5.13002101     7.92306399     0.19472360     1.00904935     2.45239521
Ti      0.83119299     0.60521902     5.86993003    -1.44245009    -0.83044863    -2.44101936
Ti      4.46878900     4.89023698     3.40907399     0.39072324     1.14554233     1.76805008
O       1.80392101     1.99198399     4.86447902    -1.07161331     0.12501839    -1.03225305
O       3.61275198     3.59986398     4.57238799    -0.46424319     0.42158188    -0.57313690
O       4.97068600     3.09835502     0.06068599    -0.39803957    -0.54787555    -0.42133814
O       3.73908802     0.71117501     0.21592300    -1.10842741    -0.16998803    -0.74316890
O       1.68766198     4.82371501     9.10260701    -0.10379239    -0.37209302    -1.21081520
O       4.29689398     0.84017700     4.77663898    -0.46446713     0.28494467    -0.29649073
O       0.95623398     4.90458901     4.30994899     1.65381541    -1.26128032     0.49502007
O       0.14061499     3.38819001     2.55820602     1.01796800    -1.00953452     0.13767363
O       5.14697399     1.96815498     6.83970301    -0.24869005     1.04549089     0.68254021
O       2.40658902     1.89736302     2.11482598     0.66776356    -0.46361250    -0.38387793
O       2.56930001     3.42150902     7.13695600     1.08834117    -0.02510915     0.31179908
O       0.17183999     0.60915202     2.12028698    -0.54415850     0.75308719    -0.24285312
O       4.93819399     4.76593102     7.00732900     0.98279324    -0.36464221     0.27160784
O       2.45248599     0.79928900     6.80618402     0.59551245    -0.73015423     1.18413820
O       2.95415502     4.33052298     2.11649500     0.48174264    -0.22012482     1.36691208
