# total energy = -19519.77042038 eV

CRYSTAL
PRIMVEC
        5.17575250     0.00001323     0.00000000
        0.00001429     5.50856584     0.00000000
        0.00000000     0.00000000     9.26345890
PRIMCOORD
23 1
Ti      1.88723157     3.26754282     3.43678266    -0.11927686     0.10068418    -0.14893481
Ti      3.29868885     2.24396530     5.82232939     0.05858646    -0.07788671    -0.24314135
Ti      4.50664541     2.13516398     1.27669271    -0.01165790    -0.22015388     0.13107232
Ti      0.75452992     3.24889089     8.00432163     0.12021891     0.14645215    -0.01460310
Ti      1.86471440     0.53992849     1.18662187     0.18654235     0.05726132    -0.28999072
Ti      3.23975006     5.04064990     8.02184658     0.08868175     0.17528014     0.10032011
Ti      0.70213648     0.50872675     5.82137817    -0.23562729    -0.05629535    -0.12723469
Ti      4.45322016     4.98600651     3.44538514    -0.18283918    -0.33878488     0.00837794
O       1.63004272     1.93697743     4.72863469    -0.01434445     0.03100854     0.01741023
O       3.53262583     3.57486502     4.52847910     0.00273051     0.05816069    -0.02765840
O       0.89521794     1.98808354     0.08097993     0.05763696    -0.16201838     0.03588387
O       3.56073150     0.81868675     0.09324985    -0.10678567     0.03929084     0.02186364
O       1.65591983     4.67295337     9.19068893     0.06168619     0.01386185     0.06221943
O       4.23242513     0.81833438     4.73272085     0.02868118     0.03330505     0.06154221
O       0.94953350     4.69319609     4.54123367    -0.01193198    -0.03982126     0.10034711
O       0.17084866     3.37371259     2.46735163     0.07712258     0.19132074     0.09086668
O       4.98691099     2.15047650     6.77128715     0.02098972    -0.16188674    -0.02317233
O       2.75572777     2.17855745     2.11523243    -0.07378786    -0.01345047    -0.05880321
O       2.46782275     3.36045200     7.15069804     0.09436929    -0.03591447     0.06655457
O       0.17945717     0.60894684     2.12840812     0.01551713    -0.09847457     0.25735544
O       4.96962331     4.86932181     7.20499944     0.05707414     0.03471942     0.07817776
O       2.40627579     0.60607211     6.74903128    -0.13151609     0.17870228    -0.07509192
O       2.78310814     4.91254466     2.49506971     0.01792985     0.14463926    -0.02336131
