# total energy = -19515.14401283 eV

CRYSTAL
PRIMVEC
        5.17600016     0.00000000     0.00000000
        0.00000000     5.50899976     0.00000000
        0.00000000     0.00000000     9.26300011
PRIMCOORD
23 1
Ti      1.82805398     3.24894802     3.41660900    -0.77951403    -1.52534017     1.65461040
Ti      3.39590499     2.36875501     5.91739902     1.53372480    -0.86163535    -3.19917369
Ti      4.30199900     2.03425101     1.45353899     0.04963234     0.56019448    -1.08928374
Ti      0.85627499     3.47684799     7.80963903    -0.07925917     0.45761668     1.42474058
Ti      2.12747400     0.04823202     1.48585098    -3.33215222     0.52543752    -1.60211360
Ti      3.22058603     5.27197497     7.93041500    -0.29475832     0.60086086     0.27572366
Ti      0.83166100     0.64625602     6.00769503    -1.21062957     0.42711824    -2.12861581
Ti      4.38993101     4.91358301     3.16978998     2.17537160    -1.20288438     3.21178675
O       1.77555901     1.85857401     4.72353001     0.13448854    -0.12147284     0.85367316
O       3.50402601     3.58215702     4.34313401     0.25246237    -0.12101441     1.81689952
O       5.07401500     2.70609101     9.19016600    -0.51481552     0.16581668     1.16906767
O       3.44752702     0.52645903     0.33090898     2.09928594     0.39074689    -1.01797545
O       1.53104499     4.80285902     9.07596902     0.59737342    -0.52859021    -0.36280850
O       4.44079299     0.82336302     5.09841198    -1.63835845     0.29540495    -1.70071749
O       0.91360097     4.68416901     4.22969900     1.01528299     0.03260237     0.54293928
O       0.18484802     3.30378899     2.39227398    -0.04361004     0.18581395     0.33453690
O       5.05566800     2.10917098     6.96625098     0.36298514    -0.16287096    -1.62826918
O       2.39339800     1.79527600     1.98868901     0.86308828     0.86470037     1.17598677
O       2.73598799     3.64909000     7.06149500    -1.49325099     0.72734838     0.77350922
O       0.11465398     0.53145700     2.02936501     1.00158749     0.57058971    -0.34922999
O       4.99344999     4.87616002     7.11482803    -0.01829186    -0.38496833     0.41986516
O       2.44522203     1.23209101     7.10969199    -0.72466852    -1.51096127     0.39620457
O       3.00189601     4.09523500     2.13798298     0.04402579     0.61548659    -0.97135516
