# total energy = -39035.47302861 eV

CRYSTAL
PRIMVEC
        5.93200024     0.00000000     0.00000000
        0.00000000     9.29399984     0.00000000
        0.00000000     0.00000000     9.29399984
PRIMCOORD
46 1
Ti      4.47051899     6.87605298     6.95882901    -0.38088413     1.20825181    -0.43669072
Ti      4.43166002     6.98118399     2.33013597     1.00393774    -0.75354408    -0.89674378
Ti      4.46549202     2.37235897     7.03027000     0.51770107    -0.55605500    -0.28521155
Ti      4.40540902     2.43371401     2.29244702     0.45770153    -0.38113302    -0.37280161
Ti      1.49514000     7.02553699     7.04372698     0.00248034     0.36042072    -0.58217099
Ti      1.55338003     7.01435399     2.29319998    -1.17834421    -0.30444367    -0.46486565
Ti      1.52075799     2.30919500     6.99498298    -0.43571139    -0.64178667    -0.45525384
Ti      1.46869299     2.26464198     2.47011701    -0.49000771    -0.24184242    -1.04180753
Ti      2.89754099     4.71489802     4.60954999     1.17687046     0.38168555     1.31619833
Ti      2.94261700     4.69018401     9.11861600     0.43615002     0.76699532     2.19204418
Ti      2.97923998     0.00821601     4.69646101    -0.32389561    -0.02437561    -0.12047731
Ti      2.95166302     0.01277201     0.04958698     0.59710319    -0.10016405    -0.99306094
Ti      0.02509602     4.60537097     4.51666700    -0.41156692     0.81204698     1.09670163
Ti      0.02585798     4.60518698     9.17093200    -0.58359718     0.60300619     1.91695095
Ti      5.90807201     9.19845900     4.68379002     0.22950061    -0.37176649     0.40485994
Ti      5.87237398     9.26905299     0.08462301    -0.58098751     0.11682866    -1.24903904
O       4.55386298     5.70197102     5.51603898    -0.31752262    -1.38466426    -0.46909486
O       4.51318999     5.49435700     0.94922497    -0.30804141    -0.34765287    -0.32736455
O       4.36405498     0.69521503     5.67837998     0.45266628     1.60949909    -0.60297199
O       4.42404601     0.92623699     0.84776799    -0.01548010     0.79132440     1.55006339
O       1.54737402     5.58779600     5.46275300    -0.73336374    -0.05518592     0.48881600
O       1.62176698     5.65109502     0.78005198    -1.10023716    -1.12501977     0.72099236
O       1.32496199     0.94073898     5.50090600     1.18853839     0.24934799    -0.23923095
O       1.67903099     1.05645798     1.00955298    -1.36802896    -0.70723669    -0.40852942
O       4.33278299     8.32794602     8.47101200     0.81467439     0.34045147    -0.58201441
O       4.48007598     8.43996300     3.66993398    -0.62164695     0.09163724    -0.30822808
O       4.40076099     3.66276299     8.52246401     1.18823988    -0.45557857    -0.52849482
O       4.47791202     3.62236899     3.77081501    -0.05968330     0.23357735    -0.20367335
O       1.41765903     8.29560901     8.37884203     0.45401662     1.14932442     0.57126180
O       1.51347398     8.41557000     3.58858202    -0.80125837     0.39274052     0.57097255
O       1.57037101     3.77937000     8.24145200    -1.43557547    -0.09527766     1.47044118
O       1.59186000     3.62940900     3.86562002    -0.84478151     0.02469006    -0.90406346
O       2.99342097     5.95236801     7.92399502     0.20225179     2.04787337    -2.44381801
O       2.95133302     6.07254501     3.23474300     0.02727453    -0.25653860    -0.11007668
O       3.05401500     1.48966201     7.89879301    -1.28497484    -1.40712286     0.59174835
O       2.93609600     1.44367301     3.28886100     1.04456041     0.22580233    -0.25985121
O       5.86949102     6.12878502     7.94030300     0.27758746    -0.94512013    -0.23333361
O       5.87802898     6.04115702     3.15702602     0.89966198    -0.55513275     0.58313361
O       5.83241199     1.37363899     7.95129501     1.12592763     0.40859190    -0.29770095
O       2.86008699     7.85657101     6.05703303     0.24288012     0.06859423    -0.13336497
O       2.98364501     7.83914299     1.37875799    -0.23227200     0.41958337     0.10609738
O       2.95504499     3.29039800     6.28210597     0.57967599     0.50357722    -2.17625888
O       5.90323200     7.98493698     5.97442401     0.48190127    -1.84765635     1.52128091
O       5.87631899     7.84918402     1.28200603     0.53157089    -0.14012492     1.24486382
O       0.06676301     3.23708598     6.08996298    -0.77927877     0.22870023    -0.14964957
O       0.02438798     3.20207800     1.38681201     0.35426678    -0.33712754     0.92941609
