# total energy = -4987.46777633 eV

CRYSTAL
PRIMVEC
        3.39996752     0.00000000     0.00000000
        0.00000000     3.55149292     0.00000000
        0.00000000    -0.00006207     4.62433932
PRIMCOORD
6 1
Ti      1.69998361     1.77571537     2.31216961     0.00000000     0.00000000     0.00000000
Ti      0.00000000     0.00000000     0.00000000     0.00000000     0.00000000     0.00000000
O       1.69998361     0.69212155     0.90121560     0.00000000    -1.01491250    -0.95211071
O       1.69998361     2.85930919     3.72312357     0.00000000     1.01491250     0.95211071
O       0.00000000     1.08356898     3.21338623     0.00000000     1.01460988    -0.95134760
O       0.00000000     2.46786176     1.41095300     0.00000000    -1.01460988     0.95134760
