# total energy = -19518.64310421 eV

CRYSTAL
PRIMVEC
        7.60600008     0.00000000     0.00000000
        0.00000000     7.60600008     0.00000000
       -1.89786986    -1.89786986     4.85670466
PRIMCOORD
23 1
Ti      3.73347499     6.70219302     1.21832198     0.24022931    -0.57904016     0.99489362
Ti      3.78510898     2.80295701     1.18582499     0.50324709     0.71036419     0.68214555
Ti     -0.08155801     6.68586499     1.21421800    -0.06638899    -0.55730353    -0.95685594
Ti      0.02068803     2.85222098     1.22110101    -0.99652499     0.27418614    -1.21858739
Ti      5.69518623     2.88518724     3.53328083    -0.97547819    -0.86147003     1.54654818
Ti      5.80709224    -0.95125278     3.60232481    -2.05910473     0.50543690     1.11893063
Ti      1.99600520     2.85181124     3.67021883     0.55813914    -0.80245651     0.83740964
Ti      1.87644221    -1.01590676     3.64671881     1.35941602     1.33784266    -0.46328622
O       3.95025203     4.64062497     0.73558300    -0.77437928     1.10721128     1.19715493
O       3.65090497     0.94601297     0.91526502    -0.16906938    -0.31794711    -0.84614085
O       7.28932502     4.77982500     0.69994402     0.94679469     0.74615704     1.10103420
O       0.12893801     0.97442900     0.74802602    -0.38168478    -1.46992670     0.08694523
O       5.77866023     4.70665322     3.93641483     0.73597650     0.90599153     0.34949070
O      -1.63296776     0.99414022     4.20701782    -0.07446175     0.39005989    -1.99418486
O       1.79082821     4.78169823     4.12048184    -0.32762988    -0.75666154    -0.23241213
O       1.91399421     0.91857323     4.01325481    -0.49092199    -0.28702726     0.41318749
O       3.79105323     2.88682922     3.29151282     0.51255629     0.12147387    -1.26375706
O       3.85303121    -0.99357876     3.31234182    -1.19112672     0.01748994    -0.23076636
O      -0.02188079    -0.79990878     3.17199782     0.67648475    -0.63524192    -0.39979718
O       5.58272098     6.81009400     1.62200601     1.71045478    -0.05383635    -0.15887161
O       5.71104699     2.57855702     1.58628702     0.30025508     0.40702018     0.50521245
O       1.87210301     6.61918701     1.70074801    -0.17937565    -0.59837872    -0.21643143
O       1.80046701     2.82117098     1.79676198     0.14259189     0.39605673    -0.85186181
