# total energy = -19518.10793401 eV

CRYSTAL
PRIMVEC
        5.93400000     0.00000000     0.00000000
        0.00000000     9.29699974     0.00000000
        0.00000000     0.00000000     4.64899994
PRIMCOORD
23 1
Ti      4.49205899     7.11938202     2.18498202     0.63384093    -0.54695972     0.45150748
Ti      4.45948802     2.33412401     2.33712402     0.46621497    -0.92209564     0.38084017
Ti      1.39635102     7.05259800     2.20148298    -0.79095030    -0.24521674     0.81838398
Ti      1.44372900     2.38794399     2.40388598    -0.61223800    -1.51513237     0.01291826
Ti      2.96367402     4.50527302     0.25309701     0.13375372     0.32023693    -0.41869762
Ti      2.99200998     9.28439998     4.59699299    -0.36829755     1.02556587    -0.02704493
Ti      5.91990097     4.59973000     0.00672097    -0.31659085     0.24477194    -0.66620084
Ti      0.00944603     0.02567399     4.63501400     0.67135205     1.51229002    -0.44508743
O       4.45341302     5.45712801     0.99856398    -0.53602019     0.59106418    -0.59014758
O       4.50281198     0.85835201     0.92270298    -0.39808791    -0.08793922     0.04696816
O       1.43869102     5.51481097     0.96413200     0.94192374     0.47913091    -0.23508685
O       1.48271798     0.91706502     0.95979899     0.39576337    -0.55173040    -0.50151854
O       4.51013399     8.45221600     3.51506898    -0.38209898    -0.19836145     1.17514602
O       4.49692102     3.61781198     3.79821702    -0.83562272     1.29765759     0.04081859
O       1.53918702     8.39844900     3.73377000    -0.26543976    -0.78937730    -0.89020058
O       1.51117301     3.70449401     3.82998401     0.37117745     0.42084783    -0.68523293
O       3.08893599     1.41024001     3.31301302    -0.93510620     0.11946712    -0.43099675
O       5.87746900     6.03900200     3.11247099     0.35376233     0.29750477     0.64829516
O       5.92648098     1.49257200     3.25166101     0.23689870    -0.61327724     0.21401331
O       2.93565498     7.81472098     1.38000198     0.05089089    -0.33473770    -0.12833358
O       2.90327399     3.22202200     1.48995300     0.65731537    -0.08967266     0.09470276
O       5.92240102     7.89618602     1.26891598     0.29634212    -0.73668381     0.39237620
O       0.01437499     3.15382100     1.32786199     0.23121734     0.32264657     0.74257755
