# total energy = -19918.26109520 eV

CRYSTAL
PRIMVEC
        4.75043203     0.00000000     0.00000000
        1.94459773     4.66697172     0.00000000
        0.00000000     0.00000000     8.68449290
PRIMCOORD
24 1
Ti      2.87416998     2.76564321     3.22188492     5.46677696    -3.89731304     1.24281157
Ti      3.82085986     1.90132864     5.46260807    -5.46677696     3.89731304    -1.24281157
Ti      4.88917240     1.90133023     1.12032686   -11.09189305     2.94962463     3.15785347
Ti      1.80585747     2.76564181     7.56416619    11.09189305    -2.94962463    -3.15785347
Ti      1.90187121     0.43215733     1.12036167     5.46647665    -3.89708139    -1.24974300
Ti      4.79315866     4.23481466     7.56413137    -5.46647665     3.89708139     1.24974300
Ti      0.83355859     0.43215561     5.46257321    11.09174058    -2.94976656     3.17071568
Ti      5.86147128     4.23481638     3.22191974   -11.09174058     2.94976656    -3.17071568
O       2.18826764     1.64332013     4.43163027    -2.71620078    -0.94484888    -1.32834063
O       4.50676215     3.02365173     4.25286273     2.71620078     0.94484888     1.32834063
O       1.55643585     1.64333899     0.08941172     2.52142498    -0.14314211    -2.66090250
O       5.13859405     3.02363295     8.59508098    -2.52142498     0.14314211     2.66090250
O       3.53446336     0.69016576     0.08938353     2.71641058     0.94538290    -1.32834063
O       3.16056648     3.97680609     8.59510918    -2.71641058    -0.94538290     1.32834063
O       4.16629521     0.69014694     4.43165841    -2.52172426     0.14305880    -2.66117632
O       2.52873455     3.97682498     4.25283453     2.52172426    -0.14305880     2.66117632
O       1.35540878     2.83871689     2.34589821    -0.32366653    -5.03037369    -4.72950822
O       5.33962102     1.82825497     6.33859479     0.32366653     5.03037369     4.72950822
O       3.30958468     1.82821154     1.99637591     2.66716416    -4.49085628    -5.44648863
O       3.38544511     2.83876032     6.68811694    -2.66716416     4.49085628     5.44648863
O       0.38310998     0.50523087     1.99634815    -0.32373518    -5.03045570     4.72944369
O       6.31191986     4.16174098     6.68814466     0.32373518     5.03045570    -4.72944369
O       2.41314632     0.50527435     6.33862246    -2.66710734     4.49087145    -5.44586848
O       4.28188348     4.16169751     2.34587049     2.66710734    -4.49087145     5.44586848
