# total energy = -19960.51584959 eV

CRYSTAL
PRIMVEC
        7.60600008     0.00000000     0.00000000
        0.00000000     7.60600008     0.00000000
       -1.89786986    -1.89786986     4.85670466
PRIMCOORD
24 1
Ti      3.91897098     6.49902203     1.23644900    -1.84971426     1.82750661    -0.60757401
Ti      3.78509602     2.77431498     1.24721701    -0.08954899    -1.82239474    -1.58316481
Ti     -0.00688100     6.71916098     1.12496701     1.75260520     0.21636175     2.19858841
Ti     -0.02678701     2.96562398     1.22356898    -0.05842603    -0.24591685     0.06712484
Ti      5.61456824     2.86516222     3.57622484     1.70625642    -0.21489468     0.65783113
Ti      5.70083424    -0.89136177     3.66149979     0.54723920    -0.03539742    -0.17689042
Ti      1.91226523     2.76685421     3.59342183    -1.70083757     0.03254941     0.66043977
Ti      1.96473321    -0.98356778     3.63364782    -0.79765831     0.06954400    -0.21652219
O       3.81040101     4.55356500     0.87142602     0.41387397     2.39766334    -0.77274200
O       3.82536101     0.82641997     0.83341501     0.21861507     1.85036193     0.14203730
O      -0.07004698     4.83368497     0.83856898     0.10955295    -1.83542047    -0.98035634
O      -0.13063301     0.95853802     0.87258402     0.73527150     1.07229286    -1.02424098
O       5.53888325     4.82401421     4.10534483     0.28566407    -0.49842062    -1.37362291
O       5.59223723     0.98185325     4.01687179     0.73932819     0.86444197     0.83786112
O       1.90300521     4.83432221     4.10125281     0.79979670    -3.28709825     0.20300101
O       1.83733924     0.91769823     4.02081083     0.25804912     1.32687356     0.53371519
O       3.81032121     2.90515924     3.18813783    -0.71589052    -0.09906927     0.26255267
O       3.80447221    -0.64652379     3.20078183     1.76594075    -1.31198404    -0.23590317
O       0.03967025     2.95245922     3.31083281    -1.18256211    -0.01520217    -0.67130526
O       0.14363622    -0.94953677     3.26139882    -2.80624290     0.20991034    -0.28801534
O       5.77539098     6.53526199     1.63041702    -0.76939982     0.03463663     1.00391871
O       5.70135098     2.65635301     1.58425598    -0.07326078     0.91872518     1.20507598
O       1.97337499     6.69581500     1.61985898    -0.33763739    -0.77749134    -0.36073593
O       1.80947700     2.92673099     1.60113002     1.04898631    -0.67757695     0.51892671
