# total energy = -19957.96697172 eV

CRYSTAL
PRIMVEC
        7.60600008     0.00000000     0.00000000
        0.00000000     7.60600008     0.00000000
       -1.89786986    -1.89786986     4.85670466
PRIMCOORD
24 1
Ti      3.78547999     6.62423198     1.27248798     0.50034200     2.20674241     2.01464339
Ti      3.81466200     3.05136800     1.18929698    -1.10404316    -2.02179312    -1.47132744
Ti     -0.01315201     6.53883801     1.18890401    -0.81773915     2.43350197     1.68727859
Ti      0.05527098     2.99000799     1.06822302     1.24153527    -2.02265855     0.40451412
Ti      5.64031123     2.84798423     3.58958180    -0.50842093    -0.31112365    -2.96113341
Ti      5.90615724    -1.11975578     3.81053579    -2.36220653     2.12621877    -0.56203873
Ti      1.76789621     2.92441621     3.51370582     0.41354358    -1.46649402     0.27653742
Ti      1.87421723    -1.02107576     3.75989882     1.74465715     1.16681050     1.21972279
O       3.45765500     4.92806300     0.55361301    -0.08630271    -2.61901690     2.54453047
O       3.72892602     1.04413403     0.90761598     0.84910893    -0.65247166    -0.66112857
O       0.46833700     4.84237602     0.42743202     0.09411475    -1.96003880     3.36746453
O       0.09234699     0.74378403     0.96917400    -0.74044482     1.05971476    -0.81829991
O       5.47326024     4.81083621     4.14902079    -0.01475608    -3.44892045    -0.62316570
O       5.70720321     0.92108523     3.99716084    -0.06634554     1.13291281     0.37787826
O       2.01037522     4.77293924     4.18592381     0.49121176     0.68558131    -1.45779649
O       1.72699721     1.05857321     4.07462180     0.38585305     0.03148934     0.09270193
O       3.65949220     2.99267621     3.15591681     1.43094440     0.04476678    -0.19691932
O       4.08680722    -0.99217178     3.28864282    -2.78814155     0.40384358    -0.43116722
O      -0.03601977     3.14851521     3.06318283    -1.32431737     0.41088198    -0.74863121
O       0.08849024    -1.28732876     3.46860680    -0.73814137     0.15724127    -1.24752209
O       5.69694802     6.50353802     1.65597702     2.47565985    -0.65472549    -0.40745727
O       5.61093502     2.89718300     1.48748598     1.27080678     0.63422402     0.34346711
O       1.91661798     6.71694600     1.90582700     0.21327746    -0.43314568    -1.42452538
O       1.77148202     2.34323099     1.48074500    -0.56019576     3.09645859     0.68237437
