# total energy = -4974.82736432 eV

CRYSTAL
PRIMVEC
        4.87299010     0.00000000     0.00000000
        0.00000000     2.54508178     0.00000000
        0.00000000    -0.00013424     6.78688379
PRIMCOORD
6 1
Ti      2.43649482     1.27247371     3.39344189     0.00000000     0.00000000     0.00000000
Ti      0.00000000     0.00000000     0.00000000     0.00000000     0.00000000     0.00000000
O       2.43649482     0.49597279     1.32266371     0.00000000     0.06707805     2.43430544
O       2.43649482     2.04897470     5.46422014     0.00000000    -0.06707805    -2.43430544
O       0.00000000     0.77644820     4.71610698     0.00000000    -0.06717472     2.43150473
O       0.00000000     1.76849928     2.07077681     0.00000000     0.06717472    -2.43150473
