# total energy = -19515.13027421 eV

CRYSTAL
PRIMVEC
        5.17600016     0.00000000     0.00000000
        0.00000000     5.50899976     0.00000000
        0.00000000     0.00000000     9.26300011
PRIMCOORD
23 1
Ti      1.99669001     3.18753700     3.33551899    -2.86689190    -1.14192401     2.92540766
Ti      3.29536703     2.42797799     5.98223700    -0.05874304    -1.73101976    -3.43019587
Ti      4.29239899     2.20267400     1.47458702     0.59815786    -1.76651102    -0.90526365
Ti      0.96592300     3.38905802     7.80661801    -2.78546144    -0.18018221     0.54375664
Ti      1.97044102     0.05854097     1.45162803    -0.99233563     2.99618784    -1.82754723
Ti      3.27399102     5.18453600     7.92434899    -0.34266519     1.60169733     1.46141738
Ti      0.65295303     0.57397602     5.89505197    -0.60338800     1.16589056    -3.58657531
Ti      4.48224402     4.84847299     3.34997600     2.44560467     1.19678135     2.74231625
O       1.59222899     2.08498001     4.89504498     0.66853206    -0.58089521     0.17465819
O       3.42279899     3.59670198     4.40571600     1.95051157     0.80367392     1.40225010
O       0.18959802     2.64256900     9.25354699    -0.29049363    -0.34389572     0.57466234
O       3.45754699     0.93071102     0.31541102    -1.61513418    -1.67338203    -1.49726937
O       1.51168298     4.73803402     9.01049101     1.74618644     1.09751256     0.93428730
O       4.37937001     0.90451701     4.81300198    -0.70570792    -1.04892255    -0.48871136
O       1.02985201     4.75879401     4.20823102    -0.25678054     0.36647027     0.93136601
O       0.17035401     3.05247800     2.61763602     0.89326610     1.58402125     0.73461278
O       4.98755702     2.27122601     6.72900098     0.05974577    -0.97314182     0.58631407
O       2.76685601     1.71342598     2.57559198    -0.25239552    -1.81592507    -1.51169249
O       2.47784300     3.85184702     6.80480699     0.51921236     0.00496866     0.51797052
O       0.14430701     0.50653799     2.10807701     0.55444266     0.38170252    -1.35440545
O       4.92067298     4.75691802     7.00608401     0.39306423     0.40268890     1.10671454
O       2.39146201     0.87657402     6.85117398     0.45027438     0.51379839     1.08359260
O       3.05900699     4.29774299     2.11172500     0.49099912    -0.85959441    -1.11766513
