# total energy = -4917.03384683 eV

CRYSTAL
PRIMVEC
        5.11143109     0.00000000     0.00000000
       -0.00000668     2.19061347     0.00000000
       -2.55574487    -1.09538598     5.54704320
PRIMCOORD
6 1
Ti     -0.00021841     1.64302813     1.38676075    -0.04251218    -0.03416252    74.30900598
Ti      2.55589771    -0.54780059     4.16028235     0.04251218     0.03416252   -74.30900598
O       0.00005431     0.54763994     0.90356800     0.04198047     0.03531309   -66.25362880
O       2.55562484     0.54758754     4.64347515    -0.04198047    -0.03531309    66.25362880
O      -0.00002137    -0.54767959     3.67708961    -0.00094797     0.00067517    -0.29935005
O       2.55570047     1.64290703     1.86995355     0.00094797    -0.00067517     0.29935005
