# total energy = -19071.43045474 eV

CRYSTAL
PRIMVEC
        5.93400000     0.00000000     0.00000000
        0.00000000     9.29699974     0.00000000
        0.00000000     0.00000000     4.64899994
PRIMCOORD
22 1
Ti      4.37154300     6.66926401     2.54964198    -0.02471782     1.62376923    -2.70969434
Ti      4.39009198     2.40064101     2.13632301     0.34624442    -0.89904209     0.25396004
Ti      1.48662299     7.22810498     2.70146701    -0.28119523     1.48333964    -1.84903061
Ti      1.66680499     2.32792200     1.95331499    -1.63090276     2.36966711     1.82339953
Ti      2.98613701     4.67833600     4.41886102     1.29559813    -1.84586198     0.85488055
Ti      2.97974598     0.14963598     0.25710902     1.16541105    -0.28399748    -0.93809253
Ti      5.87842200     4.45591200     4.09995198     0.52703829    -2.93055090     0.60411588
Ti      5.86091300     9.28005401     0.25622202    -0.69437166    -2.00732500     1.50326416
O       4.16980698     5.48910201     1.00442599     0.47981251     0.21021527     0.52713342
O       4.51184101     0.67993101     1.39865400     0.62594481     0.58667017    -0.98264822
O       1.56911098     0.63373802     1.48715201    -1.29711046    -0.83641154    -1.67842525
O       4.43374001     8.42698398     4.09025502     0.85572361     0.61514360    -0.73543116
O       4.26441101     4.04840202     2.99441398     0.60082049     0.85241409     2.38605764
O       1.50493401     8.44432501     3.94709300    -0.42942530     1.99922474     1.24126813
O       1.66063399     3.95049799     3.17450300    -1.75559077     0.06158797     0.31533512
O       2.84511699     6.32343001     3.63681097     0.21414855    -0.12939699    -0.49099038
O       3.01314002     1.45033001     3.37293198     0.50789514     0.75953552    -0.18356192
O       5.92741402     6.24261898     3.69157299     0.55079118     0.33248027    -1.21938007
O       3.09790798     7.96269201     1.63263501    -0.98845378    -2.30111273     1.20460264
O       3.03913501     2.86563202     0.87306002     0.42015107     1.57734152    -0.59880912
O       0.05742499     7.93451501     1.63172699    -0.18071982    -1.61865402     0.07980424
O       0.09639101     2.94748400     0.76268798    -0.30709190     0.38096332     0.59224226
