# total energy = -4951.22513351 eV

CRYSTAL
PRIMVEC
        5.75035998     0.00000000     0.00000000
       -0.00000751     2.46444016     0.00000000
       -2.87521297    -1.23230923     6.24042360
PRIMCOORD
6 1
Ti     -0.00024571     1.84840664     1.56010584    -0.02034412    -0.01682582    38.92255063
Ti      2.87538492    -0.61627566     4.68031764     0.02034412     0.01682582   -38.92255063
O       0.00006110     0.61609494     1.01651400     0.01912104     0.01711841   -33.57653355
O       2.87507794     0.61603599     5.22390954    -0.01912104    -0.01711841    33.57653355
O      -0.00002404    -0.61613954     4.13672581    -0.00143210    -0.00004499    -1.48414877
O       2.87516302     1.84827041     2.10369774     0.00143210     0.00004499     1.48414877
