# total energy = -19901.87659551 eV

CRYSTAL
PRIMVEC
        8.51411312     0.00000000     0.00000000
        0.00002788     3.88353891     0.00000000
        0.00000000     0.00000000    12.95781471
PRIMCOORD
24 1
Ti      3.08597289     2.30138158     4.80725684     0.16808285    -0.25164450     2.75972237
Ti      5.42816774     1.58215740     8.15055806    -0.16808285     0.25164450    -2.75972237
Ti      7.34288372     1.58215872     1.67159878     0.16824534     0.25135062    -2.76010701
Ti      1.17125691     2.30138038    11.28621624    -0.16824534    -0.25135062     2.76010701
Ti      3.08595913     0.35961219     1.67165076     0.16808285    -0.25164450    -2.75972237
Ti      5.42818150     3.52392685    11.28616426    -0.16808285     0.25164450     2.75972237
Ti      1.17124315     0.35961074     8.15050608    -0.16824534    -0.25135062    -2.76010701
Ti      7.34289747     3.52392830     4.80730882     0.16824534     0.25135062     2.76010701
O       2.69478028     1.36746006     6.61227371     1.62612179     0.92188404    -2.17265754
O       5.81936035     2.51607886     6.34554119    -1.62612179    -0.92188404     2.17265754
O       1.56234550     1.36747572     0.13340795    -1.62776036     0.92206221    -2.17519085
O       6.95179519     2.51606325    12.82440658     1.62776036    -0.92206221     2.17519085
O       5.81934666     0.57430940     0.13336592    -1.62612179    -0.92188404    -2.17265754
O       2.69479397     3.30922958    12.82444861     1.62612179     0.92188404     2.17265754
O       6.95178150     0.57429373     6.61231575     1.62776036    -0.92206221    -2.17519085
O       1.56235907     3.30924524     6.34549916    -1.62776036     0.92206221     2.17519085
O       0.30935425     2.36218850     3.50022905    -1.96657506     0.57027064     0.07891156
O       8.20478638     1.52135042     9.45758585     1.96657506    -0.57027064    -0.07891156
O       4.56642164     1.52131424     2.97871959    -1.96420682    -0.57019967    -0.07941781
O       3.94771899     2.36222474     9.97909512     1.96420682     0.57019967     0.07941781
O       0.30934056     0.42041904     2.97867824    -1.96657506     0.57027064    -0.07891156
O       8.20480007     3.46311994     9.97913647     1.96657506    -0.57027064     0.07891156
O       3.94770529     0.42045522     9.45762713     1.96420682     0.57019967    -0.07941781
O       4.56643533     3.46308375     3.50018770    -1.96420682    -0.57019967     0.07941781
