# total energy = -19516.73394178 eV

CRYSTAL
PRIMVEC
        5.93400000     0.00000000     0.00000000
        0.00000000     9.29699974     0.00000000
        0.00000000     0.00000000     4.64899994
PRIMCOORD
23 1
Ti      4.47270401     6.86979599     2.34651697    -0.36477308     1.58117555     0.51701896
Ti      4.46480901     2.37860401     2.31969298     0.18368405     0.24748574    -0.29554019
Ti      1.40044500     7.03565702     2.27478700     0.42252162     0.77076096    -0.96350070
Ti      1.47133803     2.36258899     2.38401802    -0.60651755     0.65370039     0.27434966
Ti      2.98161402     4.70596699     0.03005102     0.29513524    -2.07131027    -0.37205496
Ti      2.90990802     0.01885601     4.64823502     1.54334484     0.07741132     0.32250053
Ti      0.01865800     4.73348002     0.07368100     0.00459251    -1.72727829    -1.09328026
Ti      5.88197500     9.17521002     4.52161402    -0.84745006     0.81381667     0.29529542
O       4.59164200     5.74587500     0.91008401    -1.13452797    -1.49521043    -0.86911778
O       4.32427599     1.00147202     0.79593899     0.12297745    -0.92274921    -0.17753680
O       1.63871801     5.49334098     0.94279801    -1.07055607     1.67014167     0.42856372
O       1.46988702     0.73215102     0.76888200    -0.55807666     1.43985661     1.20273088
O       4.39584499     8.32969199     3.67902000     0.09554146    -0.20543173     1.02105769
O       4.55858800     3.58718399     3.92372998    -0.34846251     1.40954998    -1.11554294
O       1.37945799     8.22690402     3.75209901     0.73056561     0.37545525     0.15504863
O       1.44578898     3.72494798     3.76767503     1.31811432    -0.02217397    -0.41684205
O       2.97594802     1.51032500     3.08394198    -0.16334610    -1.42044221     0.82855193
O       0.24767300     5.95538898     3.27740400    -1.10763834    -0.00278322    -0.21191272
O       5.86749798     1.34763401     3.18431198     1.00345617     0.07937230    -0.30777479
O       3.01629900     7.86967403     1.54977501    -0.45328180    -0.73429859    -0.15067493
O       3.05024302     3.49336298     1.43038902     0.03904324    -1.46986526     1.04652602
O       5.81797800     7.87912402     1.52839799     1.16859793     0.38775104    -0.77205629
O       0.11480998     3.13847603     1.33361600    -0.27294353     0.56506595     0.65419173
