# total energy = -19957.84957019 eV

CRYSTAL
PRIMVEC
        7.60600008     0.00000000     0.00000000
        0.00000000     7.60600008     0.00000000
       -1.89786986    -1.89786986     4.85670466
PRIMCOORD
24 1
Ti      3.58579702     6.50293000     1.12840302     3.48274384     2.03081178     1.28469459
Ti      3.70092799     2.79720099     1.16710900     1.94650605    -3.89417861     2.18912186
Ti      0.05292699     6.82704599     1.18824698    -3.43497170     1.49975460     0.24092274
Ti      0.02386600     3.03359098     1.26274101    -1.94624097    -2.09626721    -0.78732145
Ti      5.66020020     2.93126921     3.62759980    -0.06674586    -0.59222735     0.02229739
Ti      5.82115322    -0.81134678     3.61862781     0.24673369    -0.78844862    -0.64220730
Ti      1.80130920     2.53639720     3.68468580     0.10954420     1.09428557    -1.61811435
Ti      2.09692825    -1.00744278     3.59799582    -0.52316389    -1.71777420     1.33492831
O       3.82905599     4.53420103     0.66883300    -0.04779683     1.84652404     1.68223074
O       3.85310799     0.87426300     0.74647098    -0.42238021     0.94298277    -0.14328352
O      -0.07085302     4.87291198     0.95747898     0.39363115    -1.42051188    -0.58022364
O      -0.28595601     1.11648002     0.81614901     2.46259169    -1.66820511    -0.34290147
O       5.72376624     4.79742421     4.12379883     0.45641546    -0.08884759    -1.37954185
O       5.47730125     0.87388220     4.12363981     1.21229025     4.08189621     1.06900621
O       1.76582522     4.71417722     4.22252981     0.39140355    -0.83282176    -3.34855869
O       2.08681424     0.73172921     3.98498881    -0.29578907     3.10606552     0.70297020
O       3.92859725     2.74661525     3.08936081    -2.31813627     0.52740570     0.89673992
O       3.95947622    -0.76291479     3.08909680    -2.93246766    -1.95185292     0.05601639
O      -0.03427179     2.59441921     3.35366982     1.13209057     0.45440357     0.23116540
O       0.11566820    -0.66945679     3.09374182     0.21006101    -0.80414624     2.16972751
O       5.80289502     6.90649401     1.69541602    -0.37144227    -1.46926722    -0.71612192
O       5.76847500     2.65215002     1.72759301    -0.28493721     1.91784595    -0.15766885
O       1.90206502     6.80278400     1.62167601     0.83417596    -0.78342108    -0.36850170
O       1.90037700     2.73811301     1.80722498    -0.23411523     0.60599433    -1.79537681
