# total energy = -19518.80773575 eV

CRYSTAL
PRIMVEC
        7.60600008     0.00000000     0.00000000
        0.00000000     7.60600008     0.00000000
       -1.89786986    -1.89786986     4.85670466
PRIMCOORD
23 1
Ti      3.74317401     6.64970498     1.23151701    -0.44154882     0.16042250     1.35703647
Ti      3.79151600     2.78530398     1.20888500     0.25127992    -0.25399346    -0.15218160
Ti     -0.12015901     6.69274397     1.17587900     0.61697166    -0.05519518    -0.82923301
Ti     -0.01086898     2.86384801     1.24444402    -0.55480622    -0.05775831    -1.17333493
Ti      5.69292923     2.86535823     3.60576880    -0.57221336    -0.28261062     0.55100947
Ti      5.82508723    -0.92117879     3.59530781    -1.69367730     0.18757207     0.65225980
Ti      2.04512121     2.85304925     3.67877081    -0.36013018    -0.76244190     0.51100103
Ti      1.85530322    -1.00876879     3.61915783     1.84623170     0.71547914     0.32780446
O       3.93212897     4.66912403     0.79968499    -0.45744416     0.50893926     0.11203715
O       3.55088201     0.91892100     0.89214400     0.18420033     0.47588052    -0.34673422
O       7.31666501     4.78713801     0.70755602     0.46889457     0.17021146     0.99213380
O       0.11918601     0.91718297     0.64442401    -0.25545488    -0.24797451     1.20015258
O       5.80725824     4.73020320     3.97761583     0.56075421    -0.04036762    -0.39121380
O       5.94220320     0.95633024     4.23274383    -0.01947020     0.85859168    -2.36658255
O       1.82720724     4.75769724     4.18613183    -0.23007088    -1.03694634    -1.24133292
O       1.96965324     0.86779322     4.02845881    -0.39248187     1.14476560     0.34546126
O       3.80945622     2.94654222     3.18652580     0.51591081    -0.12769594    -0.14304852
O       3.79795323    -1.01482475     3.28011783     0.24535584    -0.11676129    -0.23591269
O       0.05625525    -0.83747978     3.11727581    -1.98388553    -0.40630978     0.32104323
O       5.61257901     6.96483400     1.61060298     1.24418891    -0.59848902     0.05079370
O       5.72426700     2.60451401     1.56250003     0.22082699     0.20238395     0.95594062
O       1.84356501     6.62491298     1.71205599     0.49328535    -0.69783082    -1.08018897
O       1.78614700     2.87019602     1.71719499     0.31328287     0.26012863     0.58308965
